[Format]      =  4.0
[Frequency]   =  0
[Precision]   =  1e-008
[MinAngle]    =  15
[DoSmartMesh] =  0
[Depth]       =  110
[LengthUnits] =  millimeters
[ProblemType] =  planar
[Coordinates] =  cartesian
[ACSolver]    =  0
[PrevType]    =  0
[PrevSoln]    =  ""
[Comment]     =  "Add comments here."
[PointProps]   = 0
[BdryProps]   = 9
  <BeginBdry>
    <BdryName> = "A=0"
    <BdryType> = 0
    <A_0> = 0
    <A_1> = 0
    <A_2> = 0
    <Phi> = 0
    <c0> = 0
    <c0i> = 0
    <c1> = 0
    <c1i> = 0
    <Mu_ssd> = 0
    <Sigma_ssd> = 0
    <innerangle> = 0
    <outerangle> = 0
  <EndBdry>
  <BeginBdry>
    <BdryName> = "APr1"
    <BdryType> = 5
    <A_0> = 0
    <A_1> = 0
    <A_2> = 0
    <Phi> = 0
    <c0> = 0
    <c0i> = 0
    <c1> = 0
    <c1i> = 0
    <Mu_ssd> = 0
    <Sigma_ssd> = 0
    <innerangle> = 0
    <outerangle> = 0
  <EndBdry>
  <BeginBdry>
    <BdryName> = "APr2"
    <BdryType> = 5
    <A_0> = 0
    <A_1> = 0
    <A_2> = 0
    <Phi> = 0
    <c0> = 0
    <c0i> = 0
    <c1> = 0
    <c1i> = 0
    <Mu_ssd> = 0
    <Sigma_ssd> = 0
    <innerangle> = 0
    <outerangle> = 0
  <EndBdry>
  <BeginBdry>
    <BdryName> = "APg1"
    <BdryType> = 5
    <A_0> = 0
    <A_1> = 0
    <A_2> = 0
    <Phi> = 0
    <c0> = 0
    <c0i> = 0
    <c1> = 0
    <c1i> = 0
    <Mu_ssd> = 0
    <Sigma_ssd> = 0
    <innerangle> = 0
    <outerangle> = 0
  <EndBdry>
  <BeginBdry>
    <BdryName> = "APg2"
    <BdryType> = 5
    <A_0> = 0
    <A_1> = 0
    <A_2> = 0
    <Phi> = 0
    <c0> = 0
    <c0i> = 0
    <c1> = 0
    <c1i> = 0
    <Mu_ssd> = 0
    <Sigma_ssd> = 0
    <innerangle> = 0
    <outerangle> = 0
  <EndBdry>
  <BeginBdry>
    <BdryName> = "APg3"
    <BdryType> = 5
    <A_0> = 0
    <A_1> = 0
    <A_2> = 0
    <Phi> = 0
    <c0> = 0
    <c0i> = 0
    <c1> = 0
    <c1i> = 0
    <Mu_ssd> = 0
    <Sigma_ssd> = 0
    <innerangle> = 0
    <outerangle> = 0
  <EndBdry>
  <BeginBdry>
    <BdryName> = "APs1"
    <BdryType> = 5
    <A_0> = 0
    <A_1> = 0
    <A_2> = 0
    <Phi> = 0
    <c0> = 0
    <c0i> = 0
    <c1> = 0
    <c1i> = 0
    <Mu_ssd> = 0
    <Sigma_ssd> = 0
    <innerangle> = 0
    <outerangle> = 0
  <EndBdry>
  <BeginBdry>
    <BdryName> = "APs2"
    <BdryType> = 5
    <A_0> = 0
    <A_1> = 0
    <A_2> = 0
    <Phi> = 0
    <c0> = 0
    <c0i> = 0
    <c1> = 0
    <c1i> = 0
    <Mu_ssd> = 0
    <Sigma_ssd> = 0
    <innerangle> = 0
    <outerangle> = 0
  <EndBdry>
  <BeginBdry>
    <BdryName> = "AGap"
    <BdryType> = 7
    <A_0> = 0
    <A_1> = 0
    <A_2> = 0
    <Phi> = 0
    <c0> = 0
    <c0i> = 0
    <c1> = 0
    <c1i> = 0
    <Mu_ssd> = 0
    <Sigma_ssd> = 0
    <innerangle> = 0
    <outerangle> = 0
  <EndBdry>
[BlockProps]  = 11
  <BeginBlock>
    <BlockName> = "M600-50A"
    <Mu_x> = 1
    <Mu_y> = 1
    <H_c> = 0
    <H_cAngle> = 0
    <J_re> = 0
    <J_im> = 0
    <Sigma> = 0
    <d_lam> = 0
    <Phi_h> = 0
    <Phi_hx> = 0
    <Phi_hy> = 0
    <LamType> = 0
    <LamFill> = 1
    <NStrands> = 0
    <WireD> = 0
    <BHPoints> = 208
      0	0
      0.0061294119999999999	8.2635015680000006
      0.012398954	15.54584049
      0.018188152999999999	21.42337126
      0.023698273999999998	26.396066560000001
      0.028962854999999999	30.670770340000001
      0.034031080999999998	34.409892589999998
      0.038937833999999998	37.72521158
      0.043710287	40.697869570000002
      0.048369641999999997	43.388214720000001
      0.052932743999999997	45.842257519999997
      0.057413198999999998	48.095830579999998
      0.061822165999999998	50.17736026
      0.066168929000000001	52.109762629999999
      0.070461307000000001	53.911772880000001
      0.074705967999999998	55.598898519999999
      0.078908651999999996	57.184116670000002
      0.083074354000000003	58.67839326
      0.087207454000000004	60.091076020000003
      0.091311829999999997	61.430196219999999
      0.095390935999999996	62.702703470000003
      0.099447875000000005	63.914650479999999
      0.10348545000000001	65.071340269999993
      0.107506212	66.177444339999994
      0.111512495	67.237098649999993
      0.115506446	68.253982050000005
      0.119490053	69.231381029999994
      0.123465163	70.172243330000001
      0.127433505	71.079222909999999
      0.131396704	71.954717669999994
      0.13535628999999999	72.800901379999999
      0.139313718	73.619750830000001
      0.14327037200000001	74.413069070000006
      0.147227575	75.182505329999998
      0.151186599	75.929572239999999
      0.15514867099999999	76.655660710000006
      0.15911497799999999	77.362052919999996
      0.16308667299999999	78.049933670000001
      0.167064883	78.720400249999997
      0.171050709	79.374471249999999
      0.17504523399999999	80.013094219999999
      0.17904952399999999	80.637152520000001
      0.183064634	81.247471390000001
      0.18709161099999999	81.844823349999999
      0.19113149500000001	82.429933079999998
      0.19518532499999999	83.003481679999993
      0.19925414	83.566110629999997
      0.203338983	84.118425299999998
      0.20744090200000001	84.6609981
      0.21156095499999999	85.194371430000004
      0.21570021	85.719060249999998
      0.21985974999999999	86.23555451
      0.224040674	86.744321339999999
      0.228244101	87.245807119999995
      0.232471172	87.740439260000002
      0.23672305199999999	88.228628009999994
      0.241000933	88.710768049999999
      0.245306038	89.187239969999993
      0.249639624	89.658411700000002
      0.25400298399999999	90.124639849999994
      0.258397449	90.586270990000003
      0.26282439699999999	91.043642790000007
      0.267285249	91.497085290000001
      0.27178147899999999	91.946921900000007
      0.27631461499999999	92.393470609999994
      0.28088624499999998	92.837044969999994
      0.28549801899999999	93.277955219999996
      0.29015165799999998	93.716509279999997
      0.294848956	94.153013889999997
      0.299591787	94.587775629999996
      0.30438211199999998	95.021102040000002
      0.30922198299999998	95.45330276
      0.31411355600000002	95.884690719999995
      0.31905909100000002	96.315583349999997
      0.324060968	96.746303900000001
      0.32912169099999999	97.177182860000002
      0.33424390300000001	97.608559369999995
      0.33943039400000002	98.040782919999998
      0.34468411100000002	98.474215020000003
      0.35000818	98.909231149999997
      0.35540591100000002	99.346222819999994
      0.36088082199999999	99.785599880000007
      0.366436651	100.2277931
      0.37207738099999998	100.67325700000001
      0.37780725700000001	101.1224732
      0.38363081700000001	101.57595360000001
      0.389552911	102.03424510000001
      0.39557873700000001	102.4979336
      0.401713873	102.9676498
      0.40796431599999999	103.44407510000001
      0.41433652900000001	103.9279489
      0.420837509	104.4200783
      0.42747497499999998	104.9213567
      0.43425898400000001	105.43288579999999
      0.44146202099999998	105.9749185
      0.44856258700000001	106.5079061
      0.45587690400000003	107.05707719999999
      0.46342101400000002	107.62377619999999
      0.47120716099999999	108.2090887
      0.47924850299999999	108.8142005
      0.48755929799999997	109.4404164
      0.496155022	110.0891769
      0.50505251799999995	110.7620768
      0.51427015700000001	111.4608879
      0.52382802100000003	112.1875854
      0.53374812500000002	112.944379
      0.54405466000000002	113.73375040000001
      0.55477427700000004	114.558498
      0.56593642099999997	115.4217907
      0.57757370900000005	116.3272333
      0.58972237000000005	117.2789456
      0.60242275199999995	118.28165920000001
      0.61571989900000001	119.3408371
      0.62966422099999997	120.4628209
      0.64431222899999996	121.65501310000001
      0.65972736300000001	122.92610569999999
      0.67598086099999999	124.28636400000001
      0.69315263800000004	125.74798269999999
      0.71133206000000004	127.3255305
      0.73061842099999996	129.03650049999999
      0.75112078999999998	130.90198509999999
      0.772956635	132.94748089999999
      0.79624826999999998	135.20380520000001
      0.82111564500000001	137.70804709999999
      0.84766332799999999	140.50436830000001
      0.87595905799999996	143.6442744
      0.90600166900000001	147.18571779999999
      0.93767904199999996	151.19014369999999
      0.97072398500000001	155.71669249999999
      1.0046871660000001	160.81373919999999
      1.0389539999999999	166.5100477
      1.0728218	172.80985770000001
      1.1056189649999999	179.69557180000001
      1.1368151129999999	187.13741469999999
      1.166076154	195.10516089999999
      1.1932571599999999	203.57694960000001
      1.2183581130000001	212.54344710000001
      1.2414717689999999	222.00841339999999
      1.262740478	231.98749659999999
      1.2823264919999999	242.50660869999999
      1.3003940249999999	253.6005657
      1.317099609	265.31223169999998
      1.332587655	277.69219570000001
      1.346989049	290.79894300000001
      1.360421377	304.69948410000001
      1.3729899480000001	319.47042970000001
      1.3847891750000001	335.19953839999999
      1.395904035	351.98780690000001
      1.406411522	369.95222330000001
      1.416382027	389.22936779999998
      1.4258806550000001	409.98013700000001
      1.4349684949999999	432.3959911
      1.443703884	456.70731569999998
      1.452143746	483.19477810000001
      1.460345062	512.205018
      1.468366627	544.17275689999997
      1.476271267	579.65265699999998
      1.484128812	619.36640990000001
      1.4920203320000001	664.27439319999996
      1.5000444559999999	715.68841520000001
      1.5083273020000001	775.45608200000004
      1.517038858	846.27605440000002
      1.52642144	932.26565330000005
      1.5368418420000001	1040.044543
      1.5488919160000001	1180.938134
      1.5635876129999999	1375.704356
      1.5827254589999999	1664.518061
      1.609038255	2120.3213700000001
      1.6429877180000001	2803.4219309999999
      1.6763000130000001	3588.174364
      1.7038913950000001	4346.5592559999996
      1.7268422349999999	5076.0393119999999
      1.746445904	5791.6494789999997
      1.7635818270000001	6506.5344940000004
      1.778835427	7231.1495919999998
      1.792609184	7974.1327339999998
      1.805191346	8743.1111569999994
      1.8167966790000001	9545.295204
      1.8275911469999999	10387.927960000001
      1.837707435	11278.663500000001
      1.8472551399999999	12225.930109999999
      1.8563277979999999	13239.325269999999
      1.865008022	14330.08987
      1.873371527	15511.71947
      1.8814906259999999	16800.793989999998
      1.88943763	18218.15107
      1.8972886259999999	19790.607090000001
      1.905128269	21553.57647
      1.913056538	23555.22162
      1.921199232	25863.341659999998
      1.92972568	28577.465530000001
      1.938881257	31851.611560000001
      1.949053186	35941.14198
      1.960921235	41311.621829999996
      1.975868577	48939.738250000002
      1.9972472800000001	61282.289870000001
      2.0280781640000001	81252.957920000001
      2.0737002590000002	113566.1776
      2.1433819129999998	165850.06529999999
      2.250195926	248560.18210000001
      2.3541325240000002	331270.29889999999
      2.4580691219999999	413980.41570000001
      2.5620057200000002	496690.53249999997
      2.665942319	579400.64930000005
      2.7698789170000002	662110.76610000001
      2.873815515	744820.88289999997
      2.9777521130000002	827530.99970000004
      3.081688711	910241.1165
  <EndBlock>
  <BeginBlock>
    <BlockName> = "ShaftAir"
    <Mu_x> = 1
    <Mu_y> = 1
    <H_c> = 0
    <H_cAngle> = 0
    <J_re> = 0
    <J_im> = 0
    <Sigma> = 0
    <d_lam> = 0
    <Phi_h> = 0
    <Phi_hx> = 0
    <Phi_hy> = 0
    <LamType> = 0
    <LamFill> = 1
    <NStrands> = 0
    <WireD> = 0
    <BHPoints> = 3
      -100	-7.9577471545947675e-011
      0	0
      100	7.9577471545947675e-011
  <EndBlock>
  <BeginBlock>
    <BlockName> = "Copper"
    <Mu_x> = 1
    <Mu_y> = 1
    <H_c> = 0
    <H_cAngle> = 0
    <J_re> = 0
    <J_im> = 0
    <Sigma> = 58
    <d_lam> = 0
    <Phi_h> = 0
    <Phi_hx> = 0
    <Phi_hy> = 0
    <LamType> = 0
    <LamFill> = 1
    <NStrands> = 0
    <WireD> = 0
    <BHPoints> = 0
  <EndBlock>
  <BeginBlock>
    <BlockName> = "Air"
    <Mu_x> = 1
    <Mu_y> = 1
    <H_c> = 0
    <H_cAngle> = 0
    <J_re> = 0
    <J_im> = 0
    <Sigma> = 0
    <d_lam> = 0
    <Phi_h> = 0
    <Phi_hx> = 0
    <Phi_hy> = 0
    <LamType> = 0
    <LamFill> = 1
    <NStrands> = 0
    <WireD> = 0
    <BHPoints> = 0
  <EndBlock>
  <BeginBlock>
    <BlockName> = "Air"
    <Mu_x> = 1
    <Mu_y> = 1
    <H_c> = 0
    <H_cAngle> = 0
    <J_re> = 0
    <J_im> = 0
    <Sigma> = 0
    <d_lam> = 0
    <Phi_h> = 0
    <Phi_hx> = 0
    <Phi_hy> = 0
    <LamType> = 0
    <LamFill> = 1
    <NStrands> = 0
    <WireD> = 0
    <BHPoints> = 0
  <EndBlock>
  <BeginBlock>
    <BlockName> = "Air_1"
    <Mu_x> = 1
    <Mu_y> = 1
    <H_c> = 0
    <H_cAngle> = 0
    <J_re> = 0
    <J_im> = 0
    <Sigma> = 0
    <d_lam> = 0
    <Phi_h> = 0
    <Phi_hx> = 0
    <Phi_hy> = 0
    <LamType> = 0
    <LamFill> = 1
    <NStrands> = 0
    <WireD> = 0
    <BHPoints> = 0
  <EndBlock>
  <BeginBlock>
    <BlockName> = "Air_2"
    <Mu_x> = 1
    <Mu_y> = 1
    <H_c> = 0
    <H_cAngle> = 0
    <J_re> = 0
    <J_im> = 0
    <Sigma> = 0
    <d_lam> = 0
    <Phi_h> = 0
    <Phi_hx> = 0
    <Phi_hy> = 0
    <LamType> = 0
    <LamFill> = 1
    <NStrands> = 0
    <WireD> = 0
    <BHPoints> = 0
  <EndBlock>
  <BeginBlock>
    <BlockName> = "Air_3"
    <Mu_x> = 1
    <Mu_y> = 1
    <H_c> = 0
    <H_cAngle> = 0
    <J_re> = 0
    <J_im> = 0
    <Sigma> = 0
    <d_lam> = 0
    <Phi_h> = 0
    <Phi_hx> = 0
    <Phi_hy> = 0
    <LamType> = 0
    <LamFill> = 1
    <NStrands> = 0
    <WireD> = 0
    <BHPoints> = 0
  <EndBlock>
  <BeginBlock>
    <BlockName> = "Air_4"
    <Mu_x> = 1
    <Mu_y> = 1
    <H_c> = 0
    <H_cAngle> = 0
    <J_re> = 0
    <J_im> = 0
    <Sigma> = 0
    <d_lam> = 0
    <Phi_h> = 0
    <Phi_hx> = 0
    <Phi_hy> = 0
    <LamType> = 0
    <LamFill> = 1
    <NStrands> = 0
    <WireD> = 0
    <BHPoints> = 0
  <EndBlock>
  <BeginBlock>
    <BlockName> = "Air_5"
    <Mu_x> = 1
    <Mu_y> = 1
    <H_c> = 0
    <H_cAngle> = 0
    <J_re> = 0
    <J_im> = 0
    <Sigma> = 0
    <d_lam> = 0
    <Phi_h> = 0
    <Phi_hx> = 0
    <Phi_hy> = 0
    <LamType> = 0
    <LamFill> = 1
    <NStrands> = 0
    <WireD> = 0
    <BHPoints> = 0
  <EndBlock>
  <BeginBlock>
    <BlockName> = "Air_6"
    <Mu_x> = 1
    <Mu_y> = 1
    <H_c> = 0
    <H_cAngle> = 0
    <J_re> = 0
    <J_im> = 0
    <Sigma> = 0
    <d_lam> = 0
    <Phi_h> = 0
    <Phi_hx> = 0
    <Phi_hy> = 0
    <LamType> = 0
    <LamFill> = 1
    <NStrands> = 0
    <WireD> = 0
    <BHPoints> = 0
  <EndBlock>
[CircuitProps]  = 6
  <BeginCircuit>
    <CircuitName> = "fase1"
    <TotalAmps_re> = 0
    <TotalAmps_im> = 0
    <CircuitType> = 1
  <EndCircuit>
  <BeginCircuit>
    <CircuitName> = "fase2"
    <TotalAmps_re> = 0
    <TotalAmps_im> = 0
    <CircuitType> = 1
  <EndCircuit>
  <BeginCircuit>
    <CircuitName> = "fase3"
    <TotalAmps_re> = 0
    <TotalAmps_im> = 0
    <CircuitType> = 1
  <EndCircuit>
  <BeginCircuit>
    <CircuitName> = "fase1n"
    <TotalAmps_re> = 0
    <TotalAmps_im> = 0
    <CircuitType> = 1
  <EndCircuit>
  <BeginCircuit>
    <CircuitName> = "fase2n"
    <TotalAmps_re> = 0
    <TotalAmps_im> = 0
    <CircuitType> = 1
  <EndCircuit>
  <BeginCircuit>
    <CircuitName> = "fase3n"
    <TotalAmps_re> = 0
    <TotalAmps_im> = 0
    <CircuitType> = 1
  <EndCircuit>
[NumPoints] = 150
46.965710656320674	27.115665690108813	0	2
45.099759043152282	26.038358023951226	0	2
44.594098032195014	38.78371334329632	0	2
43.397983427963503	38.501354771186193	0	2
45.2081553066878	36.637303685407062	0	2
42.019060435925752	24.259715853776882	0	2
38.840031761638869	22.42430279291581	0	2
39.045898844505196	44.364713268820623	0	2
37.71487668293382	44.074521098448571	0	2
40.202954429712243	40.274195707839574	0	2
35.770237578242806	20.651956294775346	0	2
31.278131842837414	18.058437839210782	0	2
32.85959496171953	49.122876737338345	0	2
30.074741778304869	48.356601141006308	0	2
34.17127855925429	44.804997918315578	0	2
55.042143025946196	18.333078736039361	0	2
55.884730024485627	19.227765083086361	0	2
54.332913371071655	20.832759111120371	0	2
57.027093272356595	10.624780758793779	0	2
57.943918144663819	11.632383678528633	0	2
54.979953814831397	14.679681989399137	0	2
56.915415917935462	1.8671898217660363	0	2
58.971456642366412	3.8958056262470748	0	2
55.887905693397329	7.1906963529509333	0	2
59.5	0	0	20
29.750000000000011	51.528511525174096	0	20
25	0	0	2
12.500000000000005	21.650635094610966	0	2
0	0	0	2
59.597347813338679	-5.2140923098786498	0	1
59.804499466662719	-1.5660359325185114	0	1
59.825000000000003	0	0	20
60.40449946666272	-1.5660359325185114	0	1
60.984983427510805	-2.810887803802026	0	1
72.186494322519991	-3.7908930214774563	0	1
75.881578994391205	-0.4958280802132532	0	1
75.89500000000001	0	0	1
87.167036083027739	-7.6261274904200897	0	1
87.5	0	0	1
68.149749733331362	-3.4377236323738378	0	1
68.149749733331362	0	0	1
60.40449946666272	0	0	1
59.804499466662719	1.5660359325185114	0	1
59.597347813338679	5.2140923098786498	0	1
60.40449946666272	1.5660359325185114	0	1
60.984983427510805	2.810887803802026	0	1
75.881578994391205	0.4958280802132532	0	1
72.186494322519991	3.7908930214774563	0	1
87.167036083027739	7.6261274904200897	0	1
68.149749733331362	3.4377236323738378	0	1
59.167874025626674	8.842698020828955	0	1
58.916123823955346	10.388502228924107	0	1
59.758758677434002	8.9468869274291141	0	1
60.546590041490084	7.8217471352035055	0	1
71.74810093649927	8.8017523528789354	0	1
74.814866947049893	12.688402573310082	0	1
74.741984414861534	13.17902844403168	0	1
86.170678388568206	15.194215545856403	0	1
67.711356347310641	8.4485829637753156	0	1
67.11440190322638	11.834079849650362	0	1
59.486819391591233	10.489131255269047	0	1
58.623995453941134	11.927186676508821	0	1
57.786512557743514	15.483849373258304	0	1
59.214880105748463	12.03137558310898	0	1
59.57037895197724	13.358115339266892	0	1
74.642667661919631	13.664993248420423	0	1
70.431537606679569	16.268354029660681	0	1
84.518509800293486	22.646666446470565	0	1
66.517447459142119	15.219576735525408	0	1
56.733462672710885	18.982751069434638	0	1
56.217111038516975	20.461355074458133	0	1
57.297278245182426	19.187963155430037	0	1
58.268519155111562	18.216722245500904	0	1
69.129677809813899	21.126960935894697	0	1
71.474943025671834	25.487102535284897	0	1
71.317971454546523	25.957618777701629	0	1
82.223104318766985	29.926762540996013	0	1
65.215587662276448	20.078183641759423	0	1
64.039816932817914	23.308587171402447	0	1
56.761662411089297	20.659555565103261	0	1
55.662231004524628	21.925935888781087	0	1
54.219863359467588	25.283137508637342	0	1
56.226046576996168	22.131147974776486	0	1
56.345758656054073	23.499463299680649	0	1
71.135776643552973	26.418954511594571	0	1
66.536554260737915	28.251509332837021	0	1
79.301931365706878	36.979097902311196	0	1
62.864046203359372	26.538990701045471	0	1
52.575233765002089	28.546022832531072	0	1
51.80996978140405	29.912499999999998	0	1
53.094849007272757	28.846022832531073	0	1
54.219988799498367	28.058191468474995	0	1
64.410784404182195	32.810237501631363	0	1
65.963289128525048	37.511389783821251	0	1
65.72699802021998	37.947499999999998	0	1
75.777222831138388	43.749999999999993	0	1
60.738276346803652	31.097718869839813	0	1
59.019414530616736	34.074874866665674	0	1
52.311831041013498	30.202249733331357	0	1
51.009197832483572	31.25847663413164	0	1
49.005771049588937	34.314210304701334	0	1
51.52881307475424	31.55847663413164	0	1
51.409100995696335	32.926791959035803	0	1
65.467461048311804	38.37018921056994	0	1
60.619891382704736	39.376256820888614	0	1
71.675803875286789	50.187938180716529	0	1
57.30055271442982	37.052030863491531	0	1
46.819532983695666	37.24193813684559	0	1
45.828608809592865	38.454768749497212	0	1
47.279159649567049	37.627610702657513	0	1
48.524011520850571	37.047126741809436	0	1
57.734801907858973	43.496591603662246	0	1
58.447374070242894	48.395912435455315	0	1
58.138943010514843	48.784365637159901	0	1
67.028888772910577	56.243915847572183	0	1
54.415463239584049	41.172365646265163	0	1
52.205737083167541	43.805814731823929	0	1
46.272531155820246	38.827263826487965	0	1
44.806275996202061	39.641244384506493	0	1
42.302663184485205	42.302663184485205	0	1
45.265902662073444	40.026916950318416	0	1
44.910403815844667	41.353656706476329	0	1
57.809949777251411	49.155565126634741	0	1
52.861323780153221	49.304576670784876	0	1
61.871843353822911	61.871843353822911	0	1
49.996010926751033	46.439263817382695	0	1
39.6412443845065	44.806275996202061	0	1
38.454768749497219	45.828608809592865	0	1
40.026916950318423	45.265902662073444	0	1
41.353656706476343	44.910403815844667	0	1
49.304576670784883	52.861323780153221	0	1
49.155565126634748	57.809949777251411	0	1
48.784365637159908	58.138943010514843	0	1
56.243915847572197	67.028888772910577	0	1
46.439263817382702	49.996010926751033	0	1
43.805814731823936	52.205737083167541	0	1
38.827263826487972	46.272531155820246	0	1
37.241938136845597	46.819532983695666	0	1
34.314210304701334	49.005771049588937	0	1
37.62761070265752	47.279159649567049	0	1
37.047126741809436	48.524011520850571	0	1
48.395912435455323	58.447374070242894	0	1
43.496591603662253	57.734801907858973	0	1
50.187938180716543	71.675803875286775	0	1
41.17236564626517	54.415463239584049	0	1
59.716666666666669	0	0	20
29.858333333333341	51.716150362660727	0	20
29.912500000000009	51.809969781404043	0	20
59.608333333333334	0	0	20
29.804166666666674	51.622330943917412	0	20
[NumSegments] = 102
0	1	1.6666666666666665	0	0	2
5	6	1.6666666666666665	0	0	2
10	11	1.6666666666666665	0	0	2
24	26	-1	3	0	2
26	28	-1	2	0	2
25	27	-1	3	0	2
27	28	-1	2	0	2
32	30	1.6666666666666665	0	0	1
33	32	1.6666666666666665	0	0	1
36	35	-1	7	0	1
37	29	1.6666666666666665	0	0	1
39	40	1.6666666666666665	0	0	1
41	32	1.6666666666666665	0	0	1
39	33	1.6666666666666665	0	0	1
34	39	1.6666666666666665	0	0	1
44	42	1.6666666666666665	0	0	1
45	44	1.6666666666666665	0	0	1
36	46	1.6666666666666665	0	0	1
48	43	1.6666666666666665	0	0	1
49	40	1.6666666666666665	0	0	1
41	44	1.6666666666666665	0	0	1
49	45	1.6666666666666665	0	0	1
47	49	1.6666666666666665	0	0	1
52	50	1.6666666666666665	0	0	1
53	52	1.6666666666666665	0	0	1
56	55	1.6666666666666665	0	0	1
58	59	1.6666666666666665	0	0	1
60	52	1.6666666666666665	0	0	1
58	53	1.6666666666666665	0	0	1
54	58	1.6666666666666665	0	0	1
63	61	1.6666666666666665	0	0	1
64	63	1.6666666666666665	0	0	1
56	65	1.6666666666666665	0	0	1
67	62	1.6666666666666665	0	0	1
68	59	1.6666666666666665	0	0	1
60	63	1.6666666666666665	0	0	1
68	64	1.6666666666666665	0	0	1
66	68	1.6666666666666665	0	0	1
71	69	1.6666666666666665	0	0	1
72	71	1.6666666666666665	0	0	1
75	74	1.6666666666666665	0	0	1
77	78	1.6666666666666665	0	0	1
79	71	1.6666666666666665	0	0	1
77	72	1.6666666666666665	0	0	1
73	77	1.6666666666666665	0	0	1
82	80	1.6666666666666665	0	0	1
83	82	1.6666666666666665	0	0	1
75	84	1.6666666666666665	0	0	1
86	81	1.6666666666666665	0	0	1
87	78	1.6666666666666665	0	0	1
79	82	1.6666666666666665	0	0	1
87	83	1.6666666666666665	0	0	1
85	87	1.6666666666666665	0	0	1
90	88	1.6666666666666665	0	0	1
91	90	1.6666666666666665	0	0	1
94	93	1.6666666666666665	0	0	1
96	97	1.6666666666666665	0	0	1
98	90	1.6666666666666665	0	0	1
96	91	1.6666666666666665	0	0	1
92	96	1.6666666666666665	0	0	1
101	99	1.6666666666666665	0	0	1
102	101	1.6666666666666665	0	0	1
94	103	1.6666666666666665	0	0	1
105	100	1.6666666666666665	0	0	1
106	97	1.6666666666666665	0	0	1
98	101	1.6666666666666665	0	0	1
106	102	1.6666666666666665	0	0	1
104	106	1.6666666666666665	0	0	1
109	107	1.6666666666666665	0	0	1
110	109	1.6666666666666665	0	0	1
113	112	1.6666666666666665	0	0	1
115	116	1.6666666666666665	0	0	1
117	109	1.6666666666666665	0	0	1
115	110	1.6666666666666665	0	0	1
111	115	1.6666666666666665	0	0	1
120	118	1.6666666666666665	0	0	1
121	120	1.6666666666666665	0	0	1
113	122	1.6666666666666665	0	0	1
124	119	1.6666666666666665	0	0	1
125	116	1.6666666666666665	0	0	1
117	120	1.6666666666666665	0	0	1
125	121	1.6666666666666665	0	0	1
123	125	1.6666666666666665	0	0	1
128	126	1.6666666666666665	0	0	1
129	128	1.6666666666666665	0	0	1
132	131	1.6666666666666665	0	0	1
134	135	1.6666666666666665	0	0	1
136	128	1.6666666666666665	0	0	1
134	129	1.6666666666666665	0	0	1
130	134	1.6666666666666665	0	0	1
139	137	1.6666666666666665	0	0	1
140	139	1.6666666666666665	0	0	1
132	141	1.6666666666666665	0	0	1
143	138	-1	7	0	1
144	135	1.6666666666666665	0	0	1
136	139	1.6666666666666665	0	0	1
144	140	1.6666666666666665	0	0	1
142	144	1.6666666666666665	0	0	1
145	31	0.16666666666666666	6	0	20
146	147	0.16666666666666666	6	0	20
148	24	0.16666666666666666	4	0	20
149	25	0.16666666666666666	4	0	20
[NumArcSegments] = 76
2	3	124.53722726926398	20	0	0	2	1
4	2	50.097154209752659	9.0548914496574877	0	0	2	1
3	1	44.44912318604986	1.4357283076215259	0	0	2	1
4	0	39.083504665067039	1.6494619687986518	0	0	2	1
7	8	107.30131539397112	20	0	0	2	1
9	7	65.70876057142172	6.0933104703620709	0	0	2	1
8	6	54.050065263649117	1.0007195238533075	0	0	2	1
9	5	47.06014122904196	1.18270722820911	0	0	2	1
12	13	98.328599352010201	12.50691991434393	0	0	2	1
14	12	78.645346669808319	6.7046848479892827	0	0	2	1
13	11	55.451014722044306	0.73258203401641331	0	0	2	1
14	10	52.424960743862925	0.87126171812664166	0	0	2	1
15	16	124.53722726926438	20	0	0	2	1
16	17	50.097154209752574	9.0548914496565747	0	0	2	1
1	15	44.44912318604986	1.4357283076215293	0	0	2	1
0	17	39.083504665067082	1.6494619687986471	0	0	2	1
18	19	107.30131539397038	20	0	0	2	1
19	20	65.70876057142172	6.0933104703619962	0	0	2	1
6	18	54.050065263649088	1.0007195238533073	0	0	2	1
5	20	47.060141229041974	1.1827072282091091	0	0	2	1
21	22	98.328599352010642	12.506919914345506	0	0	2	1
22	23	78.645346669808319	6.7046848479893741	0	0	2	1
11	21	55.451014722044235	0.73258203401641298	0	0	2	1
10	23	52.424960743862869	0.87126171812664222	0	0	2	1
24	25	59.999999999999993	0.40123094897116468	0	0	2	1
26	27	59.999999999999993	0.95492965855137191	0	0	2	1
29	30	3.4999999999999991	0.39905125722999246	0	0	1	1
30	31	1.5	0.39905125722999241	0	0	1	1
34	35	93.449504390827997	7.0215416069950809	0	0	1	1
37	38	4.9999999999999991	1.6666666666666665	1	0	1	1
42	43	3.4999999999999991	0.39905125722999246	0	0	1	1
31	42	1.5	0.39905125722999241	0	0	1	1
46	47	93.449504390827997	7.0215416069951013	0	0	1	1
38	48	4.9999999999999991	1.6666666666666665	1	0	1	1
43	50	3.5000000000000009	0.39905125722999241	0	0	1	1
50	51	1.4999999999999982	0.39905125722999246	0	0	1	1
54	55	93.449504390827911	7.0215416069950818	0	0	1	1
48	57	4.9999999999999991	1.6666666666666665	1	0	1	1
61	62	3.4999999999999982	0.39905125722999252	0	0	1	1
51	61	1.5000000000000018	0.39905125722999252	0	0	1	1
65	66	93.449504390828267	7.0215416069951395	0	0	1	1
57	67	4.9999999999999982	1.6666666666666665	1	0	1	1
62	69	3.4999999999999982	0.39905125722999252	0	0	1	1
69	70	1.5000000000000036	0.39905125722999241	0	0	1	1
73	74	93.449504390828068	7.0215416069950827	0	0	1	1
67	76	5.0000000000000036	1.6666666666666665	1	0	1	1
80	81	3.4999999999999964	0.39905125722999241	0	0	1	1
70	80	1.5	0.39905125722999241	0	0	1	1
84	85	93.44950439082794	7.0215416069951191	0	0	1	1
76	86	4.9999999999999929	1.6666666666666665	1	0	1	1
81	88	3.4999999999999964	0.39905125722999241	0	0	1	1
88	89	1.5	0.39905125722999241	0	0	1	1
92	93	93.449504390828082	7.0215416069950791	0	0	1	1
86	95	5	1.6666666666666665	1	0	1	1
99	100	3.5000000000000071	0.39905125722999241	0	0	1	1
89	99	1.5	0.39905125722999241	0	0	1	1
103	104	93.449504390827983	7.0215416069950818	0	0	1	1
95	105	5	1.6666666666666665	1	0	1	1
100	107	3.5000000000000071	0.39905125722999246	0	0	1	1
107	108	1.5	0.39905125722999241	0	0	1	1
111	112	93.449504390827826	7.0215416069950738	0	0	1	1
105	114	4.9999999999999929	1.6666666666666665	1	0	1	1
118	119	3.5000000000000071	0.39905125722999241	0	0	1	1
108	118	1.4999999999999929	0.39905125722999241	0	0	1	1
122	123	93.449504390828068	7.0215416069950951	0	0	1	1
114	124	5	1.6666666666666665	1	0	1	1
119	126	3.5000000000000071	0.39905125722999241	0	0	1	1
126	127	1.5	0.39905125722999241	0	0	1	1
130	131	93.449504390828068	7.0215416069950951	0	0	1	1
124	133	4.9999999999999929	1.6666666666666665	1	0	1	1
137	138	3.5000000000000071	0.39905125722999241	0	0	1	1
127	137	1.4999999999999929	0.39905125722999235	0	0	1	1
141	142	93.449504390827812	7.0215416069950995	0	0	1	1
133	143	5	1.6666666666666665	1	0	1	1
145	146	60	0.16666666666666666	9	0	20	1
148	149	60	0.16666666666666666	9	0	20	1
[NumHoles] = 0
[NumBlockLabels] = 34
44.303069367325655	37.569329228296631	6	1.6666666666666667	0	5.79851552766588	2	1	0
38.958915556323035	42.174358403144069	7	1.6666666666666667	0	-1.5533888304734167	2	1	0
32.123010168779587	46.580799529660936	8	1.6666666666666667	0	-4.6030659570912889	2	1	0
54.687528198508936	19.582918923579868	9	1.6666666666666667	0	54.201484472334087	2	1	0
56.003523543594	12.652231374096457	10	1.6666666666666667	0	61.553388830473388	2	1	0
56.401660805666396	4.5289430873584884	11	1.6666666666666667	0	64.60306595709126	2	1	0
26.46438346872419	15.279218919605391	1	1.6666666666666667	0	0	22	1	0
10.825317547305485	6.2499999999999991	5	1.6666666666666667	0	0	2	1	0
60.114749733331365	0	5	1.6666666666666667	0	0	1	1	0
59.201471607773293	10.438816742096577	5	1.6666666666666667	0	0	1	1	0
56.48938672480314	20.560455319780697	5	1.6666666666666667	0	0	1	1	0
52.060900411208777	30.057374866665679	5	1.6666666666666667	0	0	1	1	0
46.050569982706556	38.641016287992592	5	1.6666666666666667	0	0	1	1	0
38.641016287992599	46.050569982706556	5	1.6666666666666667	0	0	1	1	0
64.56736658042108	0	3	1.6666666666666667	1	0	1	1	0
72.022374866665686	0	3	1.6666666666666667	1	0	1	1	0
63.586443199980017	11.21200554344278	3	1.6666666666666667	1	0	1	1	0
70.928193159043957	12.506554146841021	3	1.6666666666666667	1	0	1	1	0
60.673477919200366	22.083339971996612	3	1.6666666666666667	6	0	1	1	0
67.678894193682225	24.633102974552038	3	1.6666666666666667	6	0	1	1	0
55.916979714107036	32.283683290210533	3	1.6666666666666667	6	0	1	1	0
62.373206275418362	36.011187433332836	3	1.6666666666666667	6	0	1	1	0