[Format]      =  4.0
[Frequency]   =  0
[Precision]   =  1e-008
[MinAngle]    =  15
[DoSmartMesh] =  0
[Depth]       =  134
[LengthUnits] =  millimeters
[ProblemType] =  planar
[Coordinates] =  cartesian
[ACSolver]    =  0
[PrevType]    =  0
[PrevSoln]    =  ""
[Comment]     =  "Add comments here."
[PointProps]   = 0
[BdryProps]   = 11
  <BeginBdry>
    <BdryName> = "A=0"
    <BdryType> = 0
    <A_0> = 0
    <A_1> = 0
    <A_2> = 0
    <Phi> = 0
    <c0> = 0
    <c0i> = 0
    <c1> = 0
    <c1i> = 0
    <Mu_ssd> = 0
    <Sigma_ssd> = 0
    <innerangle> = 0
    <outerangle> = 0
  <EndBdry>
  <BeginBdry>
    <BdryName> = "APr1"
    <BdryType> = 5
    <A_0> = 0
    <A_1> = 0
    <A_2> = 0
    <Phi> = 0
    <c0> = 0
    <c0i> = 0
    <c1> = 0
    <c1i> = 0
    <Mu_ssd> = 0
    <Sigma_ssd> = 0
    <innerangle> = 0
    <outerangle> = 0
  <EndBdry>
  <BeginBdry>
    <BdryName> = "APr2"
    <BdryType> = 5
    <A_0> = 0
    <A_1> = 0
    <A_2> = 0
    <Phi> = 0
    <c0> = 0
    <c0i> = 0
    <c1> = 0
    <c1i> = 0
    <Mu_ssd> = 0
    <Sigma_ssd> = 0
    <innerangle> = 0
    <outerangle> = 0
  <EndBdry>
  <BeginBdry>
    <BdryName> = "APr3"
    <BdryType> = 5
    <A_0> = 0
    <A_1> = 0
    <A_2> = 0
    <Phi> = 0
    <c0> = 0
    <c0i> = 0
    <c1> = 0
    <c1i> = 0
    <Mu_ssd> = 0
    <Sigma_ssd> = 0
    <innerangle> = 0
    <outerangle> = 0
  <EndBdry>
  <BeginBdry>
    <BdryName> = "APg1"
    <BdryType> = 5
    <A_0> = 0
    <A_1> = 0
    <A_2> = 0
    <Phi> = 0
    <c0> = 0
    <c0i> = 0
    <c1> = 0
    <c1i> = 0
    <Mu_ssd> = 0
    <Sigma_ssd> = 0
    <innerangle> = 0
    <outerangle> = 0
  <EndBdry>
  <BeginBdry>
    <BdryName> = "APg2"
    <BdryType> = 5
    <A_0> = 0
    <A_1> = 0
    <A_2> = 0
    <Phi> = 0
    <c0> = 0
    <c0i> = 0
    <c1> = 0
    <c1i> = 0
    <Mu_ssd> = 0
    <Sigma_ssd> = 0
    <innerangle> = 0
    <outerangle> = 0
  <EndBdry>
  <BeginBdry>
    <BdryName> = "APg3"
    <BdryType> = 5
    <A_0> = 0
    <A_1> = 0
    <A_2> = 0
    <Phi> = 0
    <c0> = 0
    <c0i> = 0
    <c1> = 0
    <c1i> = 0
    <Mu_ssd> = 0
    <Sigma_ssd> = 0
    <innerangle> = 0
    <outerangle> = 0
  <EndBdry>
  <BeginBdry>
    <BdryName> = "APs1"
    <BdryType> = 5
    <A_0> = 0
    <A_1> = 0
    <A_2> = 0
    <Phi> = 0
    <c0> = 0
    <c0i> = 0
    <c1> = 0
    <c1i> = 0
    <Mu_ssd> = 0
    <Sigma_ssd> = 0
    <innerangle> = 0
    <outerangle> = 0
  <EndBdry>
  <BeginBdry>
    <BdryName> = "APs2"
    <BdryType> = 5
    <A_0> = 0
    <A_1> = 0
    <A_2> = 0
    <Phi> = 0
    <c0> = 0
    <c0i> = 0
    <c1> = 0
    <c1i> = 0
    <Mu_ssd> = 0
    <Sigma_ssd> = 0
    <innerangle> = 0
    <outerangle> = 0
  <EndBdry>
  <BeginBdry>
    <BdryName> = "APs3"
    <BdryType> = 5
    <A_0> = 0
    <A_1> = 0
    <A_2> = 0
    <Phi> = 0
    <c0> = 0
    <c0i> = 0
    <c1> = 0
    <c1i> = 0
    <Mu_ssd> = 0
    <Sigma_ssd> = 0
    <innerangle> = 0
    <outerangle> = 0
  <EndBdry>
  <BeginBdry>
    <BdryName> = "AGap"
    <BdryType> = 7
    <A_0> = 0
    <A_1> = 0
    <A_2> = 0
    <Phi> = 0
    <c0> = 0
    <c0i> = 0
    <c1> = 0
    <c1i> = 0
    <Mu_ssd> = 0
    <Sigma_ssd> = 0
    <innerangle> = 0
    <outerangle> = 0
  <EndBdry>
[BlockProps]  = 9
  <BeginBlock>
    <BlockName> = "M270-35A"
    <Mu_x> = 1
    <Mu_y> = 1
    <H_c> = 0
    <H_cAngle> = 0
    <J_re> = 0
    <J_im> = 0
    <Sigma> = 0
    <d_lam> = 0
    <Phi_h> = 0
    <Phi_hx> = 0
    <Phi_hy> = 0
    <LamType> = 0
    <LamFill> = 1
    <NStrands> = 0
    <WireD> = 0
    <BHPoints> = 200
      0	0
      0.0045422769999999999	3.2767874890000002
      0.0090353559999999996	6.114592773
      0.013222249	8.4602422570000009
      0.017196487	10.462328400000001
      0.020991169	12.199266809999999
      0.024640190999999999	13.72982376
      0.028168996000000002	15.09561901
      0.031597466999999997	16.327217480000002
      0.034941272000000002	17.447599879999999
      0.038212956999999999	18.47443998
      0.041422729999999998	19.421601849999998
      0.044579012000000001	20.300151339999999
      0.047688851999999997	21.119056130000001
      0.050758219	21.885681389999998
      0.053792226999999998	22.60614816
      0.056795300999999999	23.285597330000002
      0.059771310000000001	23.928387470000001
      0.062723663999999998	24.538245379999999
      0.065655396000000005	25.11838217
      0.068569221	25.67158405
      0.071467592999999996	26.200284
      0.074352739000000001	26.70661905
      0.077226698999999996	27.19247648
      0.080091349000000006	27.65953137
      0.082948429000000004	28.109277410000001
      0.085799557999999998	28.54305239
      0.088646256000000007	28.96205934
      0.091489953999999998	29.36738437
      0.094332005999999996	29.760011540000001
      0.097173704999999999	30.140835630000002
      0.100016285	30.510672870000001
      0.102860934	30.870270300000001
      0.105708802	31.220313650000001
      0.108561001	31.561434299999998
      0.11141862	31.894215259999999
      0.114282722	32.21919639
      0.117154355	32.536878999999999
      0.120034552	32.847729870000002
      0.12292433699999999	33.152184810000001
      0.12582473199999999	33.45065185
      0.12873675200000001	33.743513989999997
      0.13166142	34.031131799999997
      0.13459976100000001	34.313845620000002
      0.137552811	34.591977620000002
      0.14052161499999999	34.865833639999998
      0.14350723800000001	35.135704879999999
      0.14651076099999999	35.401869419999997
      0.14953328699999999	35.664593680000003
      0.15257594699999999	35.924133650000002
      0.155639899	36.180736189999998
      0.158726334	36.434640119999997
      0.161836481	36.686077320000003
      0.16497160599999999	36.93527375
      0.16813302299999999	37.182450420000002
      0.17132209400000001	37.427824389999998
      0.17454023399999999	37.671609650000001
      0.17778891699999999	37.914018050000003
      0.18106968000000001	38.155260249999998
      0.18438413100000001	38.395546590000002
      0.18773395400000001	38.635088090000004
      0.191120915	38.87409736
      0.19454686800000001	39.112789630000002
      0.19801376800000001	39.351383830000003
      0.20152367299999999	39.590103640000002
      0.20507876	39.829178749999997
      0.208681327	40.068846100000002
      0.21233381500000001	40.309351300000003
      0.216038808	40.550950149999998
      0.21979905799999999	40.793910310000001
      0.22361749	41.038513199999997
      0.227497227	41.285056060000002
      0.2314416	41.53385428
      0.23545417299999999	41.785244059999997
      0.23953876299999999	42.039585369999998
      0.24369946200000001	42.297265359999997
      0.247940667	42.558702250000003
      0.25226710400000002	42.824349750000003
      0.25668386300000001	43.0947022
      0.26119642799999998	43.370300520000001
      0.26581071499999998	43.651739030000002
      0.27054201700000002	43.94020278
      0.275438138	44.23873004
      0.28051031599999998	44.548036490000001
      0.28576849199999999	44.868763260000001
      0.29122336399999998	45.201605100000002
      0.296886504	45.547319020000003
      0.30277045699999999	45.906731970000003
      0.30888884599999999	46.280749559999997
      0.31525650100000002	46.670366299999998
      0.321889598	47.076677459999999
      0.328805825	47.50089294
      0.33602457000000002	47.944353649999996
      0.34356714500000002	48.408550759999997
      0.351457032	48.895148689999999
      0.35972019	49.406012390000001
      0.36838539799999998	49.943240269999997
      0.37748466600000002	50.509203810000002
      0.38705371900000002	51.106595769999998
      0.39713256899999999	51.738489119999997
      0.40776619800000002	52.408409570000003
      0.41900536300000002	53.120425429999997
      0.43090757000000002	53.879259759999997
      0.44353822799999998	54.690431349999997
      0.45697202599999998	55.560433060000001
      0.47129457299999999	56.49695913
      0.486604327	57.509196449999997
      0.503014823	58.60819978
      0.520657166	59.807376320000003
      0.53968265500000001	61.123111049999999
      0.56026517099999995	62.575567960000001
      0.58260257699999995	64.189698669999999
      0.60691558199999995	65.996464399999994
      0.63344113800000001	68.034201780000004
      0.662415215	70.349880479999996
      0.69403682899999997	72.999622560000006
      0.72840307800000004	76.047204840000006
      0.76540934699999996	79.558509650000005
      0.80463064699999998	83.589963030000007
      0.84524547999999999	88.171938179999998
      0.88609953900000005	93.294734669999997
      0.92594964300000004	98.90894376
      0.963771241	104.9435902
      0.99893980100000002	111.3300564
      1.0312218310000001	118.0174305
      1.0606584889999999	124.9760964
      1.0874410889999999	132.19454709999999
      1.1118223309999999	139.6744898
      1.1340651580000001	147.42664859999999
      1.1544176930000001	155.46782519999999
      1.173103241	163.8190534
      1.1903180360000001	172.50453999999999
      1.2062325739999999	181.55112829999999
      1.220994358	190.98810510000001
      1.234730984	200.84723579999999
      1.2475531	211.16296399999999
      1.2595570490000001	221.97273730000001
      1.270827143	233.31744900000001
      1.281437594	245.2419931
      1.291454146	257.79594609999998
      1.3009354369999999	271.03439809999998
      1.309934159	285.01896390000002
      1.318498043	299.81902289999999
      1.326670706	315.51324579999999
      1.3344924010000001	332.19149570000002
      1.3420006879999999	349.95721329999998
      1.3492310569999999	368.93044570000001
      1.356217531	389.25173360000002
      1.362993272	411.08716509999999
      1.3695912379999999	434.63503709999998
      1.3760449050000001	460.1347695
      1.382389146	487.87903890000001
      1.3886613240000001	518.23060969999995
      1.394902732	551.64618570000005
      1.401160583	588.71104339999999
      1.4074908660000001	630.19074279999995
      1.4139626249999999	677.11087850000001
      1.420664664	730.8848299
      1.4277165590000001	793.52783980000004
      1.435287779	868.03580320000003
      1.4436331710000001	959.10175079999999
      1.453164339	1074.5891859999999
      1.464608755	1228.9034079999999
      1.479413587	1451.8548430000001
      1.5007295060000001	1812.597843
      1.531321148	2396.2922779999999
      1.5749716949999999	3340.7297119999998
      1.6351726849999999	4868.8615820000005
      1.6746062129999999	6056.7860730000002
      1.7053540309999999	7126.7301200000002
      1.7307497590000001	8135.9466300000004
      1.752580204	9119.3875740000003
      1.771845345	10098.25848
      1.789165838	11087.22133
      1.804957089	12097.58993
      1.819514077	13138.977849999999
      1.8330565510000001	14220.25051
      1.845754994	15350.15127
      1.8577465099999999	16537.778849999999
      1.869145125	17793.012470000001
      1.8800488470000001	19126.948680000001
      1.8905448170000001	20552.403480000001
      1.9007133519999999	22084.53774
      1.9106314310000001	23741.68173
      1.920376064	25546.46932
      1.930027954	27527.455720000002
      1.9396760099999999	29721.505959999999
      1.9494234969999999	32177.45292
      1.959397184	34961.935420000002
      1.969762051	38169.180130000001
      1.980746793	41938.394229999998
      1.9926918389999999	46487.096960000003
      2.0061495709999999	52181.595710000001
      2.022124024	59707.652569999998
      2.042772002	70576.241299999994
      2.0725625070000002	88161.987269999998
      2.1158769670000002	116616.322
      2.1803765140000002	162656.4026
      2.2792825830000001	237150.818
      2.3747656959999999	310949.48619999998
  <EndBlock>
  <BeginBlock>
    <BlockName> = "ShaftAir"
    <Mu_x> = 1
    <Mu_y> = 1
    <H_c> = 0
    <H_cAngle> = 0
    <J_re> = 0
    <J_im> = 0
    <Sigma> = 0
    <d_lam> = 0
    <Phi_h> = 0
    <Phi_hx> = 0
    <Phi_hy> = 0
    <LamType> = 0
    <LamFill> = 1
    <NStrands> = 0
    <WireD> = 0
    <BHPoints> = 3
      -100	-7.9577471545947675e-011
      0	0
      100	7.9577471545947675e-011
  <EndBlock>
  <BeginBlock>
    <BlockName> = "Copper"
    <Mu_x> = 1
    <Mu_y> = 1
    <H_c> = 0
    <H_cAngle> = 0
    <J_re> = 0
    <J_im> = 0
    <Sigma> = 58
    <d_lam> = 0
    <Phi_h> = 0
    <Phi_hx> = 0
    <Phi_hy> = 0
    <LamType> = 0
    <LamFill> = 1
    <NStrands> = 0
    <WireD> = 0
    <BHPoints> = 0
  <EndBlock>
  <BeginBlock>
    <BlockName> = "Aluminium"
    <Mu_x> = 1
    <Mu_y> = 1
    <H_c> = 0
    <H_cAngle> = 0
    <J_re> = 0
    <J_im> = 0
    <Sigma> = 29
    <d_lam> = 0
    <Phi_h> = 0
    <Phi_hx> = 0
    <Phi_hy> = 0
    <LamType> = 0
    <LamFill> = 1
    <NStrands> = 0
    <WireD> = 0
    <BHPoints> = 0
  <EndBlock>
  <BeginBlock>
    <BlockName> = "BMN-52UH"
    <Mu_x> = 1.05
    <Mu_y> = 1.05
    <H_c> = 1098926.9880154678
    <H_cAngle> = 0
    <J_re> = 0
    <J_im> = 0
    <Sigma> = 0.66600000000000004
    <d_lam> = 0
    <Phi_h> = 0
    <Phi_hx> = 0
    <Phi_hy> = 0
    <LamType> = 0
    <LamFill> = 1
    <NStrands> = 0
    <WireD> = 0
    <BHPoints> = 0
  <EndBlock>
  <BeginBlock>
    <BlockName> = "DW235"
    <Mu_x> = 1
    <Mu_y> = 1
    <H_c> = 0
    <H_cAngle> = 0
    <J_re> = 0
    <J_im> = 0
    <Sigma> = 0
    <d_lam> = 0
    <Phi_h> = 0
    <Phi_hx> = 0
    <Phi_hy> = 0
    <LamType> = 0
    <LamFill> = 1
    <NStrands> = 0
    <WireD> = 0
    <BHPoints> = 0
  <EndBlock>
  <BeginBlock>
    <BlockName> = "Air"
    <Mu_x> = 1
    <Mu_y> = 1
    <H_c> = 0
    <H_cAngle> = 0
    <J_re> = 0
    <J_im> = 0
    <Sigma> = 0
    <d_lam> = 0
    <Phi_h> = 0
    <Phi_hx> = 0
    <Phi_hy> = 0
    <LamType> = 0
    <LamFill> = 1
    <NStrands> = 0
    <WireD> = 0
    <BHPoints> = 0
  <EndBlock>
  <BeginBlock>
    <BlockName> = "BMN-52UH_1"
    <Mu_x> = 1.05
    <Mu_y> = 1.05
    <H_c> = 1098926.9880154678
    <H_cAngle> = 0
    <J_re> = 0
    <J_im> = 0
    <Sigma> = 0.66600000000000004
    <d_lam> = 0
    <Phi_h> = 0
    <Phi_hx> = 0
    <Phi_hy> = 0
    <LamType> = 0
    <LamFill> = 1
    <NStrands> = 0
    <WireD> = 0
    <BHPoints> = 0
  <EndBlock>
  <BeginBlock>
    <BlockName> = "BMN-52UH_2"
    <Mu_x> = 1.05
    <Mu_y> = 1.05
    <H_c> = 1098926.9880154678
    <H_cAngle> = 0
    <J_re> = 0
    <J_im> = 0
    <Sigma> = 0.66600000000000004
    <d_lam> = 0
    <Phi_h> = 0
    <Phi_hx> = 0
    <Phi_hy> = 0
    <LamType> = 0
    <LamFill> = 1
    <NStrands> = 0
    <WireD> = 0
    <BHPoints> = 0
  <EndBlock>
[CircuitProps]  = 6
  <BeginCircuit>
    <CircuitName> = "fase1"
    <TotalAmps_re> = 0
    <TotalAmps_im> = 0
    <CircuitType> = 1
  <EndCircuit>
  <BeginCircuit>
    <CircuitName> = "fase2"
    <TotalAmps_re> = 0
    <TotalAmps_im> = 0
    <CircuitType> = 1
  <EndCircuit>
  <BeginCircuit>
    <CircuitName> = "fase3"
    <TotalAmps_re> = 0
    <TotalAmps_im> = 0
    <CircuitType> = 1
  <EndCircuit>
  <BeginCircuit>
    <CircuitName> = "fase1n"
    <TotalAmps_re> = 0
    <TotalAmps_im> = 0
    <CircuitType> = 1
  <EndCircuit>
  <BeginCircuit>
    <CircuitName> = "fase2n"
    <TotalAmps_re> = 0
    <TotalAmps_im> = 0
    <CircuitType> = 1
  <EndCircuit>
  <BeginCircuit>
    <CircuitName> = "fase3n"
    <TotalAmps_re> = 0
    <TotalAmps_im> = 0
    <CircuitType> = 1
  <EndCircuit>
[NumPoints] = 179
43.126384604887491	31.840634509511801	0	2
47.59532852843364	29.673106760980414	0	2
49.118335237306638	30.552415094325845	0	2
50.587279160852809	33.5810397685011	0	2
47.364148534400968	55.806863141507591	0	2
47.014590284659725	56.431647152688875	0	2
42.467037750831892	59.928734382342988	0	2
39.33138951450821	58.009878128734641	0	2
50.515521083715825	34.075863755758789	0	2
43.159036741952242	33.009045686208722	0	2
47.501681843962288	54.858471220581919	0	2
40.14519750219872	53.791653151031852	0	2
49.495328528433646	26.382210226599543	0	2
49.137990660296438	21.428227386454779	0	2
51.018335237306644	27.261518559944975	0	2
54.375673105443859	27.019348977383114	0	2
72.012235453267508	13.115124288656919	0	2
72.378535153958211	12.500005958687929	0	2
73.133325267174911	6.8131663245216814	0	2
69.903722887177594	5.0570434213376814	0	2
54.76832421024244	26.70979266602691	0	2
50.166190489914023	20.872299378292244	0	2
71.25967061178261	13.708427589066407	0	2
66.657536891454185	7.8709343013317472	0	2
74.950000000000003	0	0	20
34.75	0	0	2
37.475000000000009	64.908604013643682	0	20
17.375000000000004	30.094382781509243	0	2
0	0	0	2
112.5	0	0	1
75.650000000000006	0	0	20
56.250000000000014	97.427857925749336	0	1
37.82500000000001	65.514821796292779	0	20
76.440284661047372	5.6644521121924294	0	1
76.510655107869965	4.4562382008168333	0	1
76.668871491120001	6.7714991690286075	0	1
93.19204443281528	7.7338644024418528	0	1
94.247715052688179	6.8058577118831751	0	1
94.340120956634848	5.4946863320399659	0	1
94.400557574756803	4.1816529533347149	0	1
93.459760022992484	3.1373652334132451	0	1
76.936587081297205	2.1749999999999998	0	1
76.581025554692559	3.2480242894412372	0	1
85.545246653377063	2.6763973228806375	0	1
85.277531063199859	7.2728964919092451	0	1
75.4419765027761	5.6063072832819536	0	1
75.582717396421288	3.1898794605307614	0	1
75.265820049438091	14.500326516285016	0	1
75.475979750331973	13.308451625389278	0	1
75.364340938238996	15.626425428193812	0	1
91.664066311134775	18.500506789573684	0	1
92.820333864968418	17.70133082688708	0	1
93.064332659653672	16.409752789524919	0	1
93.276794498262177	15.112613935917013	0	1
92.463592687571023	13.96616738658593	0	1
76.163867314675258	11.092086025206061	0	1
75.686139451225841	12.116576734493542	0	1
84.65610953405951	12.589497455195039	0	1
83.856583157623248	17.123836858182791	0	1
74.281012296425885	14.326678338618084	0	1
74.701331698213636	11.942928556826612	0	1
73.073514338961616	23.140108879321325	0	1
73.420621244497767	21.980691072162642	0	1
73.040636960480768	24.270031090323712	0	1
88.896488940824852	29.016961559697812	0	1
90.137716893511993	28.35742380880513	0	1
90.530008913813688	27.10290549119803	0	1
90.891622791016459	25.839202740461708	0	1
90.217013880853457	24.60610108459014	0	1
74.361161900509373	19.859170615216044	0	1
73.767728150033918	20.82127326500396	0	1
82.622143759485539	22.332346231507941	0	1
81.30161881945692	26.743206706615609	0	1
72.115524826646123	22.853305646610231	0	1
72.809738637718425	20.534470032292869	0	1
69.89301470348704	31.466960966248713	0	1
70.372374788224391	30.355679379706345	0	1
69.729183667867758	32.58542621680423	0	1
84.926739058084564	39.141011702857	0	1
86.236141930871668	38.630031280412688	0	1
86.771422100185902	37.429537890700317	0	1
87.277297808636504	36.216360654677594	0	1
86.750404727230915	34.913279476795182	0	1
71.552849337014109	28.357693990742412	0	1
70.851734872961728	29.244397793163969	0	1
79.470855227520786	31.773188335819803	0	1
77.647189558374436	36.000920561881621	0	1
68.97479859660676	31.070881200209559	0	1
69.933518766081463	28.848318027124812	0	1
65.767331944488248	39.368276387172074	0	1
66.372462685615233	38.320159198318336	0	1
65.474762785437818	40.460159353476065	0	1
79.808500720036022	48.735746808509901	0	1
81.168371085328189	48.380233848148826	0	1
81.839400657629454	47.25	0	1
82.482697096192751	46.103754419622078	0	1
82.110645168593976	44.748315657244909	0	1
67.776907233995743	36.472728202211073	0	1
66.977593426742203	37.272042009464613	0	1
75.244859709575351	40.784352574282288	0	1
72.942715261017412	44.771783725547287	0	1
64.901306540703814	38.868276387172074	0	1
66.111568022957769	36.772042009464613	0	1
60.752258843738453	46.737203405602685	0	1
61.474976886073335	45.7664246013887	0	1
60.33490805723531	47.787738243643531	0	1
73.610989319945958	57.67141454396603	0	1
75.002937263888285	57.476176748600331	0	1
75.800641715351645	56.431486915913297	0	1
76.572659403260744	55.367673996288957	0	1
76.360479993540466	53.978207633444839	0	1
63.084398730829804	44.09453133312234	0	1
62.197694928408232	44.795645797174707	0	1
70.001306545402258	49.243978409077258	0	1
67.25181587180775	52.937185319598449	0	1
59.950135650983398	46.140044813899898	0	1
61.395571735653192	44.198487205471913	0	1
54.915615661648154	53.474089924891842	0	1
55.746147483479547	52.593777623289185	0	1
54.379127201121229	54.46906995316062	0	1
66.418015567769629	65.82717533209734	0	1
67.823217382284554	65.794852957982044	0	1
68.736809128653107	64.849834778595323	0	1
69.627107851062917	63.882840764508579	0	1
69.577670321747249	62.478136950147814	0	1
57.538781955098855	51.120031571211086	0	1
56.576679305310932	51.713465321686535	0	1
63.81110579631595	57.037663913140889	0	1
60.65145104233833	60.386702295090423	0	1
54.188242020075101	52.787848287023103	0	1
55.84930566373788	51.027223683817802	0	1
48.336332984587827	59.487831111886429	0	1
49.2634470677894	58.709890026612719	0	1
47.687961936128431	60.413800932373015	0	1
58.32685209407466	73.092736499320608	0	1
59.726304835221946	73.223766651117103	0	1
60.743429115377978	72.391199874743435	0	1
61.739969109361027	71.534101701372151	0	1
61.853942018224679	70.1331566448372	0	1
51.215051860278464	57.454221077889621	0	1
50.19056115099098	57.931948941339016	0	1
56.757969308258225	64.060012859972645	0	1
53.230879384108206	67.019592714456024	0	1
47.693545374901284	58.72178666876745	0	1
49.547773541304437	57.16590449822003	0	1
41.103384324111296	64.697101433508422	0	1
42.11454304115702	64.032051883196587	0	1
40.351898793879755	65.541538892877043	0	1
49.446918004582216	79.369843794802179	0	1
50.821696474776488	79.66245451448755	0	1
51.928598427691178	78.953598178522498	0	1
53.017903199377159	78.217986628323416	0	1
53.293745258346448	76.839745708205257	0	1
44.198726047643987	63.01144080628012	0	1
43.125701758202752	63.367002332884759	0	1
48.937278652688057	70.216060026793031	0	1
45.090451398923825	72.746158113389953	0	1
40.553875346040485	63.861613622095476	0	1
42.57619278013194	62.53151452147182	0	1
111.73931524596858	13.060452839088402	0	1
75.138481763177992	8.7824289535736675	0	1
109.46754794023018	25.944285458524519	0	1
73.610844459363676	17.446090621665601	0	1
105.7154198384147	38.477266124137728	0	1
71.087746762453975	25.873823842586841	0	1
100.53367203638388	50.489907772551994	0	1
67.603309240466146	33.951657982164967	0	1
93.99237878395536	61.819760032965661	0	1
63.204652933388651	41.570354191056467	0	1
86.179999850885039	72.313606089735671	0	1
57.951262121950698	48.626882672786699	0	1
77.202184260232542	81.829534676967967	0	1
51.914179904769711	55.025815985001131	0	1
67.180341566563456	90.238859184942413	0	1
45.175047462315788	60.680619531919064	0	1
75.416666666666671	0	0	20
37.708333333333343	65.312749202076418	0	20
75.183333333333337	0	0	20
37.591666666666676	65.110676607860043	0	20
[NumSegments] = 151
2	1	1.6666666666666665	0	0	2
4	10	1.6666666666666665	0	0	2
0	7	1.6666666666666665	0	0	2
8	3	1.6666666666666665	0	0	2
8	9	1.6666666666666665	0	0	2
10	8	1.6666666666666665	0	0	2
11	10	1.6666666666666665	0	0	2
9	11	1.6666666666666665	0	0	2
14	12	1.6666666666666665	0	0	2
16	22	1.6666666666666665	0	0	2
13	19	1.6666666666666665	0	0	2
20	15	1.6666666666666665	0	0	2
20	21	1.6666666666666665	0	0	2
22	20	1.6666666666666665	0	0	2
23	22	1.6666666666666665	0	0	2
21	23	1.6666666666666665	0	0	2
24	25	-1	4	0	2
27	26	-1	4	0	2
25	28	-1	2	0	2
28	27	-1	2	0	2
29	30	-1	10	0	1
32	31	-1	10	0	1
33	34	1.6666666666666665	0	0	1
35	33	1.6666666666666665	0	0	1
36	44	1.6666666666666665	0	0	1
38	37	1.6666666666666665	0	0	1
39	38	1.6666666666666665	0	0	1
41	43	1.6666666666666665	0	0	1
42	41	1.6666666666666665	0	0	1
34	42	1.6666666666666665	0	0	1
43	40	1.6666666666666665	0	0	1
44	35	1.6666666666666665	0	0	1
43	44	1.6666666666666665	0	0	1
33	45	1.6666666666666665	0	0	1
46	42	1.6666666666666665	0	0	1
47	48	1.6666666666666665	0	0	1
49	47	1.6666666666666665	0	0	1
50	58	1.6666666666666665	0	0	1
52	51	1.6666666666666665	0	0	1
53	52	1.6666666666666665	0	0	1
55	57	1.6666666666666665	0	0	1
56	55	1.6666666666666665	0	0	1
48	56	1.6666666666666665	0	0	1
57	54	1.6666666666666665	0	0	1
58	49	1.6666666666666665	0	0	1
57	58	1.6666666666666665	0	0	1
47	59	1.6666666666666665	0	0	1
60	56	1.6666666666666665	0	0	1
61	62	1.6666666666666665	0	0	1
63	61	1.6666666666666665	0	0	1
64	72	1.6666666666666665	0	0	1
66	65	1.6666666666666665	0	0	1
67	66	1.6666666666666665	0	0	1
69	71	1.6666666666666665	0	0	1
70	69	1.6666666666666665	0	0	1
62	70	1.6666666666666665	0	0	1
71	68	1.6666666666666665	0	0	1
72	63	1.6666666666666665	0	0	1
71	72	1.6666666666666665	0	0	1
61	73	1.6666666666666665	0	0	1
74	70	1.6666666666666665	0	0	1
75	76	1.6666666666666665	0	0	1
77	75	1.6666666666666665	0	0	1
78	86	1.6666666666666665	0	0	1
80	79	1.6666666666666665	0	0	1
81	80	1.6666666666666665	0	0	1
83	85	1.6666666666666665	0	0	1
84	83	1.6666666666666665	0	0	1
76	84	1.6666666666666665	0	0	1
85	82	1.6666666666666665	0	0	1
86	77	1.6666666666666665	0	0	1
85	86	1.6666666666666665	0	0	1
75	87	1.6666666666666665	0	0	1
88	84	1.6666666666666665	0	0	1
89	90	1.6666666666666665	0	0	1
91	89	1.6666666666666665	0	0	1
92	100	1.6666666666666665	0	0	1
94	93	1.6666666666666665	0	0	1
95	94	1.6666666666666665	0	0	1
97	99	1.6666666666666665	0	0	1
98	97	1.6666666666666665	0	0	1
90	98	1.6666666666666665	0	0	1
99	96	1.6666666666666665	0	0	1
100	91	1.6666666666666665	0	0	1
99	100	1.6666666666666665	0	0	1
89	101	1.6666666666666665	0	0	1
102	98	1.6666666666666665	0	0	1
103	104	1.6666666666666665	0	0	1
105	103	1.6666666666666665	0	0	1
106	114	1.6666666666666665	0	0	1
108	107	1.6666666666666665	0	0	1
109	108	1.6666666666666665	0	0	1
111	113	1.6666666666666665	0	0	1
112	111	1.6666666666666665	0	0	1
104	112	1.6666666666666665	0	0	1
113	110	1.6666666666666665	0	0	1
114	105	1.6666666666666665	0	0	1
113	114	1.6666666666666665	0	0	1
103	115	1.6666666666666665	0	0	1
116	112	1.6666666666666665	0	0	1
117	118	1.6666666666666665	0	0	1
119	117	1.6666666666666665	0	0	1
120	128	1.6666666666666665	0	0	1
122	121	1.6666666666666665	0	0	1
123	122	1.6666666666666665	0	0	1
125	127	1.6666666666666665	0	0	1
126	125	1.6666666666666665	0	0	1
118	126	1.6666666666666665	0	0	1
127	124	1.6666666666666665	0	0	1
128	119	1.6666666666666665	0	0	1
127	128	1.6666666666666665	0	0	1
117	129	1.6666666666666665	0	0	1
130	126	1.6666666666666665	0	0	1
131	132	1.6666666666666665	0	0	1
133	131	1.6666666666666665	0	0	1
134	142	1.6666666666666665	0	0	1
136	135	1.6666666666666665	0	0	1
137	136	1.6666666666666665	0	0	1
139	141	1.6666666666666665	0	0	1
140	139	1.6666666666666665	0	0	1
132	140	1.6666666666666665	0	0	1
141	138	1.6666666666666665	0	0	1
142	133	1.6666666666666665	0	0	1
141	142	1.6666666666666665	0	0	1
131	143	1.6666666666666665	0	0	1
144	140	1.6666666666666665	0	0	1
145	146	1.6666666666666665	0	0	1
147	145	1.6666666666666665	0	0	1
148	156	1.6666666666666665	0	0	1
150	149	1.6666666666666665	0	0	1
151	150	1.6666666666666665	0	0	1
153	155	1.6666666666666665	0	0	1
154	153	1.6666666666666665	0	0	1
146	154	1.6666666666666665	0	0	1
155	152	1.6666666666666665	0	0	1
156	147	1.6666666666666665	0	0	1
155	156	1.6666666666666665	0	0	1
145	157	1.6666666666666665	0	0	1
158	154	1.6666666666666665	0	0	1
159	160	1.6666666666666665	0	0	1
161	162	1.6666666666666665	0	0	1
163	164	1.6666666666666665	0	0	1
165	166	1.6666666666666665	0	0	1
167	168	1.6666666666666665	0	0	1
169	170	1.6666666666666665	0	0	1
171	172	1.6666666666666665	0	0	1
173	174	1.6666666666666665	0	0	1
175	30	0.16666666666666666	7	0	20
176	32	0.16666666666666666	7	0	20
177	24	0.16666666666666666	5	0	20
178	26	0.16666666666666666	5	0	20
[NumArcSegments] = 68
0	1	111.74863759822009	7.9577471545947986	0	0	2	7.9577471545947986
2	3	68.25136240178017	7.9577471545947658	0	0	2	7.9577471545947658
4	5	41.950127223074645	10	0	0	2	10
5	6	4.4761460920415246	0.32502711318971139	0	0	2	0.32502711318971139
6	7	133.57372668488355	10	0	0	2	10
12	13	111.74863759821994	7.9577471545947658	0	0	2	7.9577471545947658
15	14	68.251362401780057	7.9577471545947613	0	0	2	7.9577471545947613
17	16	41.950127223074873	10	0	0	2	10
18	17	4.4761460920415201	0.32502711318971128	0	0	2	0.32502711318971128
19	18	133.57372668488395	10	0	0	2	10
24	26	59.999999999999993	0.31852223434001731	0	0	2	0.31852223434001731
25	27	59.999999999999993	0.68699975435350491	0	0	2	0.68699975435350491
29	159	6.6666666666666679	1.6666666666666665	1	0	1	1.6666666666666665
30	46	2.4166666666666665	0.3155749036851857	0	0	1	0.3155749036851857
37	36	89.302030629293654	10	0	0	1	10
40	39	89.302030629293156	10	0	0	1	10
45	160	2.4166666666666643	0.3155749036851857	0	0	1	0.3155749036851857
46	45	1.8333333333333341	0.3155749036851857	0	0	1	0.3155749036851857
51	50	89.302030629294052	10	0	0	1	10
54	53	89.302030629293469	10	0	0	1	10
59	162	2.4166666666666661	0.3155749036851857	0	0	1	0.3155749036851857
60	59	1.8333333333333321	0.3155749036851857	0	0	1	0.3155749036851857
65	64	89.302030629293057	10	0	0	1	10
68	67	89.302030629292275	10	0	0	1	10
73	164	2.4166666666666647	0.3155749036851857	0	0	1	0.3155749036851857
74	73	1.8333333333333319	0.3155749036851857	0	0	1	0.3155749036851857
79	78	89.302030629293341	10	0	0	1	10
82	81	89.302030629293625	10	0	0	1	10
87	166	2.4166666666666679	0.3155749036851857	0	0	1	0.3155749036851857
88	87	1.8333333333333357	0.3155749036851857	0	0	1	0.3155749036851857
93	92	89.302030629294279	10	0	0	1	10
96	95	89.302030629292943	10	0	0	1	10
101	168	2.4166666666666559	0.3155749036851857	0	0	1	0.3155749036851857
102	101	1.8333333333333357	0.3155749036851857	0	0	1	0.3155749036851857
107	106	89.302030629294308	10	0	0	1	10
110	109	89.302030629292204	10	0	0	1	10
115	170	2.4166666666666581	0.3155749036851857	0	0	1	0.3155749036851857
116	115	1.8333333333333384	0.3155749036851857	0	0	1	0.3155749036851857
121	120	89.302030629294123	10	0	0	1	10
124	123	89.302030629292915	10	0	0	1	10
129	172	2.4166666666666581	0.3155749036851857	0	0	1	0.3155749036851857
130	129	1.8333333333333293	0.3155749036851857	0	0	1	0.3155749036851857
135	134	89.302030629293171	10	0	0	1	10
138	137	89.302030629293981	10	0	0	1	10
143	174	2.4166666666666456	0.3155749036851857	0	0	1	0.3155749036851857
144	143	1.8333333333333417	0.3155749036851857	0	0	1	0.3155749036851857
149	148	89.302030629293583	10	0	0	1	10
152	151	89.302030629293625	10	0	0	1	10
157	32	2.416666666666655	0.3155749036851857	0	0	1	0.3155749036851857
158	157	1.833333333333329	0.3155749036851857	0	0	1	0.3155749036851857