[Format]      =  4.0
[Frequency]   =  0
[Precision]   =  1e-008
[MinAngle]    =  15
[DoSmartMesh] =  0
[Depth]       =  100
[LengthUnits] =  millimeters
[ProblemType] =  planar
[Coordinates] =  cartesian
[ACSolver]    =  0
[PrevType]    =  0
[PrevSoln]    =  ""
[Comment]     =  "Add comments here."
[PointProps]   = 0
[BdryProps]   = 11
  <BeginBdry>
    <BdryName> = "A=0"
    <BdryType> = 0
    <A_0> = 0
    <A_1> = 0
    <A_2> = 0
    <Phi> = 0
    <c0> = 0
    <c0i> = 0
    <c1> = 0
    <c1i> = 0
    <Mu_ssd> = 0
    <Sigma_ssd> = 0
    <innerangle> = 0
    <outerangle> = 0
  <EndBdry>
  <BeginBdry>
    <BdryName> = "APr1"
    <BdryType> = 5
    <A_0> = 0
    <A_1> = 0
    <A_2> = 0
    <Phi> = 0
    <c0> = 0
    <c0i> = 0
    <c1> = 0
    <c1i> = 0
    <Mu_ssd> = 0
    <Sigma_ssd> = 0
    <innerangle> = 0
    <outerangle> = 0
  <EndBdry>
  <BeginBdry>
    <BdryName> = "APr2"
    <BdryType> = 5
    <A_0> = 0
    <A_1> = 0
    <A_2> = 0
    <Phi> = 0
    <c0> = 0
    <c0i> = 0
    <c1> = 0
    <c1i> = 0
    <Mu_ssd> = 0
    <Sigma_ssd> = 0
    <innerangle> = 0
    <outerangle> = 0
  <EndBdry>
  <BeginBdry>
    <BdryName> = "APr3"
    <BdryType> = 5
    <A_0> = 0
    <A_1> = 0
    <A_2> = 0
    <Phi> = 0
    <c0> = 0
    <c0i> = 0
    <c1> = 0
    <c1i> = 0
    <Mu_ssd> = 0
    <Sigma_ssd> = 0
    <innerangle> = 0
    <outerangle> = 0
  <EndBdry>
  <BeginBdry>
    <BdryName> = "APg1"
    <BdryType> = 5
    <A_0> = 0
    <A_1> = 0
    <A_2> = 0
    <Phi> = 0
    <c0> = 0
    <c0i> = 0
    <c1> = 0
    <c1i> = 0
    <Mu_ssd> = 0
    <Sigma_ssd> = 0
    <innerangle> = 0
    <outerangle> = 0
  <EndBdry>
  <BeginBdry>
    <BdryName> = "APg2"
    <BdryType> = 5
    <A_0> = 0
    <A_1> = 0
    <A_2> = 0
    <Phi> = 0
    <c0> = 0
    <c0i> = 0
    <c1> = 0
    <c1i> = 0
    <Mu_ssd> = 0
    <Sigma_ssd> = 0
    <innerangle> = 0
    <outerangle> = 0
  <EndBdry>
  <BeginBdry>
    <BdryName> = "APg3"
    <BdryType> = 5
    <A_0> = 0
    <A_1> = 0
    <A_2> = 0
    <Phi> = 0
    <c0> = 0
    <c0i> = 0
    <c1> = 0
    <c1i> = 0
    <Mu_ssd> = 0
    <Sigma_ssd> = 0
    <innerangle> = 0
    <outerangle> = 0
  <EndBdry>
  <BeginBdry>
    <BdryName> = "APs1"
    <BdryType> = 5
    <A_0> = 0
    <A_1> = 0
    <A_2> = 0
    <Phi> = 0
    <c0> = 0
    <c0i> = 0
    <c1> = 0
    <c1i> = 0
    <Mu_ssd> = 0
    <Sigma_ssd> = 0
    <innerangle> = 0
    <outerangle> = 0
  <EndBdry>
  <BeginBdry>
    <BdryName> = "APs2"
    <BdryType> = 5
    <A_0> = 0
    <A_1> = 0
    <A_2> = 0
    <Phi> = 0
    <c0> = 0
    <c0i> = 0
    <c1> = 0
    <c1i> = 0
    <Mu_ssd> = 0
    <Sigma_ssd> = 0
    <innerangle> = 0
    <outerangle> = 0
  <EndBdry>
  <BeginBdry>
    <BdryName> = "APs3"
    <BdryType> = 5
    <A_0> = 0
    <A_1> = 0
    <A_2> = 0
    <Phi> = 0
    <c0> = 0
    <c0i> = 0
    <c1> = 0
    <c1i> = 0
    <Mu_ssd> = 0
    <Sigma_ssd> = 0
    <innerangle> = 0
    <outerangle> = 0
  <EndBdry>
  <BeginBdry>
    <BdryName> = "AGap"
    <BdryType> = 7
    <A_0> = 0
    <A_1> = 0
    <A_2> = 0
    <Phi> = 0
    <c0> = 0
    <c0i> = 0
    <c1> = 0
    <c1i> = 0
    <Mu_ssd> = 0
    <Sigma_ssd> = 0
    <innerangle> = 0
    <outerangle> = 0
  <EndBdry>
[BlockProps]  = 7
  <BeginBlock>
    <BlockName> = "M530-65A"
    <Mu_x> = 1
    <Mu_y> = 1
    <H_c> = 0
    <H_cAngle> = 0
    <J_re> = 0
    <J_im> = 0
    <Sigma> = 0
    <d_lam> = 0
    <Phi_h> = 0
    <Phi_hx> = 0
    <Phi_hy> = 0
    <LamType> = 0
    <LamFill> = 1
    <NStrands> = 0
    <WireD> = 0
    <BHPoints> = 199
      0	0
      0.018848	12.326973000000001
      0.038573999999999997	22.163343000000001
      0.059312999999999998	30.264441000000001
      0.081240999999999994	37.121026999999998
      0.104587	43.070056000000001
      0.12967000000000001	48.356479
      0.156946	53.171472999999999
      0.187116	57.680774999999997
      0.221361	62.054786999999997
      0.26198100000000002	66.524258000000003
      0.314919	71.574237999999994
      0.442722	82.040378000000004
      0.57165600000000005	92.228953000000004
      0.62506200000000001	96.637904000000006
      0.66604200000000002	100.157055
      0.70059000000000005	103.243889
      0.73102699999999998	106.07473
      0.75854500000000002	108.74006199999999
      0.78385000000000005	111.294023
      0.80740299999999998	113.77241100000001
      0.82952400000000004	116.200692
      0.85044799999999998	118.598054
      0.87034800000000001	120.97966099999999
      0.88936300000000001	123.358001
      0.90760099999999999	125.743736
      0.925149	128.146277
      0.94208199999999997	130.574173
      0.95845899999999995	133.03539799999999
      0.97433099999999995	135.53756799999999
      0.98974300000000004	138.088109
      1.0047330000000001	140.69439700000001
      1.019333	143.36387099999999
      1.0335719999999999	146.10414599999999
      1.047477	148.923102
      1.0610679999999999	151.82898499999999
      1.074368	154.830499
      1.0873930000000001	157.93690100000001
      1.10016	161.158107
      1.1126830000000001	164.50479999999999
      1.1249769999999999	167.98855499999999
      1.137054	171.62196900000001
      1.1489229999999999	175.41881900000001
      1.1605970000000001	179.394229
      1.1720839999999999	183.56486799999999
      1.183392	187.94917699999999
      1.194531	192.56763000000001
      1.2055070000000001	197.44303199999999
      1.2163269999999999	202.600876
      1.226998	208.069751
      1.237525	213.881823
      1.2479150000000001	220.073407
      1.258173	226.685632
      1.268303	233.76522800000001
      1.278311	241.36546999999999
      1.2882	249.547281
      1.297974	258.38055000000003
      1.307639	267.945695
      1.317196	278.33551
      1.3266500000000001	289.657352
      1.336004	302.03570000000002
      1.345261	315.615139
      1.3544240000000001	330.56378699999999
      1.363496	347.07715100000001
      1.372479	365.38233400000001
      1.3813770000000001	385.74240600000002
      1.390191	408.46058799999997
      1.3989229999999999	433.88362499999999
      1.4075770000000001	462.40341799999999
      1.416153	494.45556900000003
      1.424655	530.51313400000004
      1.433084	571.07376399999998
      1.4414419999999999	616.63877300000001
      1.44973	667.683943
      1.457951	724.6241
      1.466105	787.77634999999998
      1.4741949999999999	857.32916
      1.4822219999999999	933.32478600000002
      1.4901880000000001	1015.660001
      1.498094	1104.1052070000001
      1.5059400000000001	1198.337168
      1.51373	1297.9777180000001
      1.521463	1402.631005
      1.5291399999999999	1511.9141030000001
      1.5367649999999999	1625.4788289999999
      1.5443359999999999	1743.0249819999999
      1.5518559999999999	1864.306583
      1.5593250000000001	1989.1331339999999
      1.5667439999999999	2117.3677389999998
      1.5741149999999999	2248.9235370000001
      1.5814379999999999	2383.7594840000002
      1.588714	2521.8761
      1.595944	2663.3115870000001
      1.603129	2808.1384779999998
      1.6102700000000001	2956.460916
      1.6173679999999999	3108.4125450000001
      1.624423	3264.1550130000001
      1.6314360000000001	3423.8770279999999
      1.6384080000000001	3587.7939299999998
      1.64534	3756.1477399999999
      1.6522319999999999	3929.2076630000001
      1.659084	4107.2710040000002
      1.665899	4290.6645090000002
      1.6726749999999999	4479.7461000000003
      1.6794150000000001	4674.9070380000003
      1.686118	4876.5745010000001
      1.692785	5085.214626
      1.699417	5301.3360259999999
      1.7060139999999999	5525.493837
      1.7125760000000001	5758.2943370000003
      1.7191050000000001	6000.4002049999999
      1.7256009999999999	6252.5364829999999
      1.732064	6515.4973220000002
      1.738494	6790.15362
      1.744893	7077.4616260000003
      1.751261	7378.4726540000001
      1.757598	7694.3440220000002
      1.7639039999999999	8026.3513469999998
      1.7701800000000001	8375.9023460000008
      1.776427	8744.552291
      1.782645	9134.0212510000001
      1.788834	9546.2132579999998
      1.7949949999999999	9983.2374779999991
      1.8011280000000001	10447.43145
      1.8072330000000001	10941.38629
      1.8133109999999999	11467.973819999999
      1.8193619999999999	12030.37499
      1.8253870000000001	12632.10929
      1.831385	13277.063829999999
      1.837358	13969.52079
      1.843305	14714.181049999999
      1.8492280000000001	15516.181070000001
      1.8551249999999999	16381.09935
      1.8609979999999999	17314.947639999999
      1.866846	18324.141339999998
      1.872671	19415.442930000001
      1.8784719999999999	20595.871869999999
      1.88425	21872.575840000001
      1.890004	23252.659780000002
      1.8957360000000001	24742.973529999999
      1.9014450000000001	26349.86418
      1.907133	28078.906019999999
      1.912798	29934.628089999998
      1.9184410000000001	31920.26454
      1.9240630000000001	34037.555240000002
      1.9296629999999999	36286.621249999997
      1.935243	38665.931929999999
      1.9408019999999999	41172.369030000002
      1.94634	43801.379809999999
      1.9518580000000001	46547.200389999998
      1.957355	49403.123290000003
      1.962833	52361.781179999998
      1.9682919999999999	55415.421999999999
      1.97373	58556.156179999998
      1.97915	61776.164400000001
      1.98455	65067.860919999999
      1.989932	68424.013019999999
      1.995295	71837.820730000007
      2.0006390000000001	75302.963180000006
      2.0059659999999999	78813.618239999996
      2.0112739999999998	82364.46213
      2.0165639999999998	85950.654729999995
      2.021836	89567.815289999999
      2.027091	93211.992480000001
      2.0323289999999998	96879.631450000001
      2.0375489999999998	100567.53999999999
      2.0427529999999998	104272.8551
      2.047939	107993.01149999999
      2.0531090000000001	111725.7111
      2.058262	115468.8958
      2.063399	119220.7224
      2.0685199999999999	122979.53909999999
      2.0736240000000001	126743.8655
      2.078713	130512.374
      2.0837859999999999	134283.8731
      2.0888429999999998	138057.29300000001
      2.0938850000000002	141831.67240000001
      2.0989110000000002	145606.147
      2.1039219999999998	149379.93890000001
      2.1089190000000002	153152.34830000001
      2.1139000000000001	156922.74419999999
      2.1188660000000001	160690.55840000001
      2.123818	164455.2782
      2.128755	168216.44140000001
      2.1336780000000002	171973.63080000001
      2.1385860000000001	175726.46979999999
      2.1434799999999998	179474.6188
      2.148361	183217.77100000001
      2.1532269999999998	186955.64970000001
      2.1580789999999999	190688.00520000001
      2.1629179999999999	194414.61249999999
      2.1677430000000002	198135.26860000001
      2.172555	201849.79079999999
      2.1773539999999998	205558.0148
      2.1821389999999998	209259.79310000001
      2.1869109999999998	212954.99309999999
      2.1916699999999998	216643.4963
      2.1964160000000001	220325.1967
      2.201149	224000
  <EndBlock>
  <BeginBlock>
    <BlockName> = "ShaftAir"
    <Mu_x> = 1
    <Mu_y> = 1
    <H_c> = 0
    <H_cAngle> = 0
    <J_re> = 0
    <J_im> = 0
    <Sigma> = 0
    <d_lam> = 0
    <Phi_h> = 0
    <Phi_hx> = 0
    <Phi_hy> = 0
    <LamType> = 0
    <LamFill> = 1
    <NStrands> = 0
    <WireD> = 0
    <BHPoints> = 3
      -100	-7.9577471545947675e-011
      0	0
      100	7.9577471545947675e-011
  <EndBlock>
  <BeginBlock>
    <BlockName> = "Copper"
    <Mu_x> = 1
    <Mu_y> = 1
    <H_c> = 0
    <H_cAngle> = 0
    <J_re> = 0
    <J_im> = 0
    <Sigma> = 58
    <d_lam> = 0
    <Phi_h> = 0
    <Phi_hx> = 0
    <Phi_hy> = 0
    <LamType> = 0
    <LamFill> = 1
    <NStrands> = 0
    <WireD> = 0
    <BHPoints> = 0
  <EndBlock>
  <BeginBlock>
    <BlockName> = "Aluminium"
    <Mu_x> = 1
    <Mu_y> = 1
    <H_c> = 0
    <H_cAngle> = 0
    <J_re> = 0
    <J_im> = 0
    <Sigma> = 29
    <d_lam> = 0
    <Phi_h> = 0
    <Phi_hx> = 0
    <Phi_hy> = 0
    <LamType> = 0
    <LamFill> = 1
    <NStrands> = 0
    <WireD> = 0
    <BHPoints> = 0
  <EndBlock>
  <BeginBlock>
    <BlockName> = "Air"
    <Mu_x> = 1
    <Mu_y> = 1
    <H_c> = 0
    <H_cAngle> = 0
    <J_re> = 0
    <J_im> = 0
    <Sigma> = 0
    <d_lam> = 0
    <Phi_h> = 0
    <Phi_hx> = 0
    <Phi_hy> = 0
    <LamType> = 0
    <LamFill> = 1
    <NStrands> = 0
    <WireD> = 0
    <BHPoints> = 0
  <EndBlock>
  <BeginBlock>
    <BlockName> = "DW235"
    <Mu_x> = 1
    <Mu_y> = 1
    <H_c> = 0
    <H_cAngle> = 0
    <J_re> = 0
    <J_im> = 0
    <Sigma> = 0
    <d_lam> = 0
    <Phi_h> = 0
    <Phi_hx> = 0
    <Phi_hy> = 0
    <LamType> = 0
    <LamFill> = 1
    <NStrands> = 0
    <WireD> = 0
    <BHPoints> = 0
  <EndBlock>
  <BeginBlock>
    <BlockName> = "Air"
    <Mu_x> = 1
    <Mu_y> = 1
    <H_c> = 0
    <H_cAngle> = 0
    <J_re> = 0
    <J_im> = 0
    <Sigma> = 0
    <d_lam> = 0
    <Phi_h> = 0
    <Phi_hx> = 0
    <Phi_hy> = 0
    <LamType> = 0
    <LamFill> = 1
    <NStrands> = 0
    <WireD> = 0
    <BHPoints> = 0
  <EndBlock>
[CircuitProps]  = 6
  <BeginCircuit>
    <CircuitName> = "fase1"
    <TotalAmps_re> = 0
    <TotalAmps_im> = 0
    <CircuitType> = 1
  <EndCircuit>
  <BeginCircuit>
    <CircuitName> = "fase2"
    <TotalAmps_re> = 0
    <TotalAmps_im> = 0
    <CircuitType> = 1
  <EndCircuit>
  <BeginCircuit>
    <CircuitName> = "fase3"
    <TotalAmps_re> = 0
    <TotalAmps_im> = 0
    <CircuitType> = 1
  <EndCircuit>
  <BeginCircuit>
    <CircuitName> = "fase1n"
    <TotalAmps_re> = 0
    <TotalAmps_im> = 0
    <CircuitType> = 1
  <EndCircuit>
  <BeginCircuit>
    <CircuitName> = "fase2n"
    <TotalAmps_re> = 0
    <TotalAmps_im> = 0
    <CircuitType> = 1
  <EndCircuit>
  <BeginCircuit>
    <CircuitName> = "fase3n"
    <TotalAmps_re> = 0
    <TotalAmps_im> = 0
    <CircuitType> = 1
  <EndCircuit>
[NumPoints] = 131
26.580538212568758	26.580538212568754	0	2
23.384861946522832	23.384861946522829	0	2
23.138690352281397	31.222945023309315	0	2
19.209962243392273	35.187859420650234	0	2
17.290315288161658	33.638275769682416	0	2
21.730788985697359	21.730788985697355	0	2
18.535112719651426	18.535112719651423	0	2
14.463906199407498	35.346223445655141	0	2
11.78273025496901	38.319386317354279	0	2
9.6910097783469844	36.558543232827546	0	2
16.26302115705095	16.263021157050947	0	2
13.067344891005025	13.067344891005023	0	2
6.3605101491465508	37.478201495137412	0	2
3.9730791967915309	39.892640194602599	0	2
1.8029241756116221	37.785523967235079	0	2
31.222945023309318	23.138690352281387	0	2
35.187859420650241	19.209962243392269	0	2
33.638275769682423	17.290315288161658	0	2
35.346223445655149	14.463906199407493	0	2
38.319386317354279	11.782730254969005	0	2
36.558543232827546	9.6910097783469791	0	2
37.478201495137412	6.3605101491465437	0	2
39.892640194602599	3.9730791967915238	0	2
37.785523967235079	1.8029241756116186	0	2
40.490000000000002	0	0	20
16.77	0	0	2
2.4792974448738165e-015	40.490000000000002	0	20
1.0268663410850556e-015	16.77	0	2
0	0	0	2
67.5	0	0	1
40.765000000000001	0	0	20
4.1331829471223168e-015	67.5	0	1
2.4961363383620927e-015	40.765000000000001	0	20
40.964099078470454	6.7383286170954486	0	1
41.138194053646458	5.4159459933975125	0	1
41.029970815119562	8.2470394295744569	0	1
55.243433359919223	12.055525240103538	0	1
56.487269505892428	11.26205610690492	0	1
57.141924585279568	7.522877088602673	0	1
57.477347079772571	3.7416703031878327	0	1
56.481258546077996	2.6533094915033031	0	1
41.766399332296011	2.653309491503304	0	1
41.312289028822462	4.0935633696995763	0	1
49.537897605145297	2.6533094915033044	0	1
48.536661705825573	10.258451191569199	0	1
40.220515432440095	6.6404339729304098	0	1
40.568705382792103	3.9956687255345376	0	1
37.824273472295197	17.11101464424997	0	1
38.334694112970524	15.878750211016435	0	1
37.497417592125416	18.585366242403772	0	1
50.240859484372123	25.942795849294761	0	1
51.647677864812287	25.498292004739799	0	1
53.247796856288019	22.05595962436195	0	1
54.550438435973355	18.490408065520871	0	1
53.869979302014549	17.181325566065453	0	1
39.656516757214874	13.372839755536369	0	1
38.845114753645845	14.6464857777829	0	1
47.163207647920892	15.384251517531112	0	1
44.227732521879787	22.471115378828415	0	1
37.13136382291173	16.824002069976153	0	1
38.152205104262379	14.359473203509081	0	1
32.106786136550404	26.317613300687547	0	1
32.91874811957301	25.25944384263002	0	1
31.409477327640424	27.657131059583183	0	1
41.814454061911007	38.06210779385377	0	1
43.28838232906844	37.996861440371546	0	1
45.72491976768535	35.085964960917615	0	1
47.906007561624456	31.979055075032768	0	1
47.587549992868823	30.538462696783228	0	1
34.844108100622108	23.181033089892235	0	1
33.730710102595623	24.201274384572493	0	1
41.574423030376479	27.066782226316878	0	1
36.904756456351699	33.152410188294454	0	1
31.511771131331976	25.861042228931005	0	1
33.135695097377194	23.74470331281595	0	1
24.2012743845725	33.730710102595623	0	1
25.259443842630027	32.91874811957301	0	1
23.181033089892246	34.844108100622115	0	1
30.538462696783228	47.587549992868816	0	1
31.979055075032782	47.906007561624449	0	1
35.085964960917622	45.724919767685343	0	1
37.996861440371553	43.288382329068426	0	1
38.062107793853777	41.814454061911007	0	1
27.657131059583186	31.409477327640413	0	1
26.317613300687551	32.10678613655039	0	1
33.152410188294454	36.904756456351684	0	1
27.066782226316885	41.574423030376487	0	1
23.744703312815961	33.135695097377194	0	1
25.861042228931009	31.511771131331969	0	1
14.646485777782907	38.845114753645845	0	1
15.878750211016438	38.334694112970524	0	1
13.372839755536379	39.656516757214881	0	1
17.18132556606546	53.869979302014542	0	1
18.490408065520885	54.550438435973355	0	1
22.055959624361961	53.247796856288012	0	1
25.498292004739806	51.64767786481228	0	1
25.942795849294775	50.240859484372123	0	1
18.585366242403776	37.497417592125416	0	1
17.111014644249973	37.824273472295197	0	1
22.471115378828422	44.22773252187978	0	1
15.384251517531123	47.163207647920885	0	1
14.35947320350909	38.152205104262386	0	1
16.824002069976153	37.13136382291173	0	1
4.093563369699587	41.31228902882247	0	1
5.4159459933975214	41.138194053646451	0	1
2.6533094915033155	41.766399332296018	0	1
2.6533094915033182	56.481258546077989	0	1
3.7416703031878473	57.477347079772571	0	1
7.5228770886026872	57.141924585279561	0	1
11.262056106904932	56.487269505892414	0	1
12.055525240103552	55.243433359919223	0	1
8.2470394295744676	41.029970815119555	0	1
6.7383286170954566	40.964099078470447	0	1
10.258451191569208	48.536661705825566	0	1
2.6533094915033164	49.537897605145297	0	1
3.9956687255345473	40.56870538279211	0	1
6.6404339729304169	40.220515432440088	0	1
65.19999327451211	17.47028554442015	0	1
39.375966308673867	10.550758373604259	0	1
58.45671475544961	33.749999999999993	0	1
35.303525585272645	20.382499999999997	0	1
47.72970773009196	47.729707730091953	0	1
28.825207935069614	28.825207935069606	0	1
33.749999999999993	58.45671475544961	0	1
20.382499999999997	35.303525585272645	0	1
17.47028554442015	65.19999327451211	0	1
10.550758373604259	39.375966308673867	0	1
40.673333333333332	0	0	20
2.4905233738660005e-015	40.673333333333332	0	20
40.581666666666671	0	0	20
2.4849104093699087e-015	40.581666666666671	0	20
[NumSegments] = 96
0	1	2.5	0	0	2
5	6	2.5	0	0	2
10	11	2.5	0	0	2
24	25	-1	4	0	2
27	26	-1	4	0	2
25	28	-1	2	0	2
28	27	-1	2	0	2
29	30	-1	10	0	1
32	31	-1	10	0	1
33	34	2.5	0	0	1
35	33	2.5	0	0	1
36	44	2.5	0	0	1
38	37	2.5	0	0	1
39	38	2.5	0	0	1
41	43	2.5	0	0	1
42	41	2.5	0	0	1
34	42	2.5	0	0	1
43	40	2.5	0	0	1
44	35	2.5	0	0	1
43	44	2.5	0	0	1
33	45	2.5	0	0	1
46	42	2.5	0	0	1
47	48	2.5	0	0	1
49	47	2.5	0	0	1
50	58	2.5	0	0	1
52	51	2.5	0	0	1
53	52	2.5	0	0	1
55	57	2.5	0	0	1
56	55	2.5	0	0	1
48	56	2.5	0	0	1
57	54	2.5	0	0	1
58	49	2.5	0	0	1
57	58	2.5	0	0	1
47	59	2.5	0	0	1
60	56	2.5	0	0	1
61	62	2.5	0	0	1
63	61	2.5	0	0	1
64	72	2.5	0	0	1
66	65	2.5	0	0	1
67	66	2.5	0	0	1
69	71	2.5	0	0	1
70	69	2.5	0	0	1
62	70	2.5	0	0	1
71	68	2.5	0	0	1
72	63	2.5	0	0	1
71	72	2.5	0	0	1
61	73	2.5	0	0	1
74	70	2.5	0	0	1
75	76	2.5	0	0	1
77	75	2.5	0	0	1
78	86	2.5	0	0	1
80	79	2.5	0	0	1
81	80	2.5	0	0	1
83	85	2.5	0	0	1
84	83	2.5	0	0	1
76	84	2.5	0	0	1
85	82	2.5	0	0	1
86	77	2.5	0	0	1
85	86	2.5	0	0	1
75	87	2.5	0	0	1
88	84	2.5	0	0	1
89	90	2.5	0	0	1
91	89	2.5	0	0	1
92	100	2.5	0	0	1
94	93	2.5	0	0	1
95	94	2.5	0	0	1
97	99	2.5	0	0	1
98	97	2.5	0	0	1
90	98	2.5	0	0	1
99	96	2.5	0	0	1
100	91	2.5	0	0	1
99	100	2.5	0	0	1
89	101	2.5	0	0	1
102	98	2.5	0	0	1
103	104	2.5	0	0	1
105	103	2.5	0	0	1
106	114	2.5	0	0	1
108	107	2.5	0	0	1
109	108	2.5	0	0	1
111	113	2.5	0	0	1
112	111	2.5	0	0	1
104	112	2.5	0	0	1
113	110	2.5	0	0	1
114	105	2.5	0	0	1
113	114	2.5	0	0	1
103	115	2.5	0	0	1
116	112	2.5	0	0	1
117	118	2.5	0	0	1
119	120	2.5	0	0	1
121	122	2.5	0	0	1
123	124	2.5	0	0	1
125	126	2.5	0	0	1
127	30	0.25	7	0	20
128	32	0.25	7	0	20
129	24	0.25	5	0	20
130	26	0.25	5	0	20
[NumArcSegments] = 64
2	0	16.894043026565015	1.820444009904058	0	0	2	1
2	3	33.262775442892575	3.6724463095413289	0	0	2	1
3	4	135.08508565488845	10	0	0	2	1
4	1	28.546181928784137	1.480338615961722	0	0	2	1
7	5	33.820187380211621	1.3498113738692279	0	0	2	1
7	8	61.728181552800564	9.1771483853379934	0	0	2	1
8	9	114.36640815573725	10	0	0	2	1
9	6	37.725597671673825	1.1533375721123977	0	0	2	1
12	10	39.956927702285071	1.045173504961725	0	0	2	1
12	13	79.269350776635036	10	0	0	2	1
13	14	99.686415801570377	10	0	0	2	1
14	11	41.001161124080141	0.92337508134334079	0	0	2	1
0	15	16.894043026565015	1.8204440099040586	0	0	2	1
16	15	33.262775442892561	3.6724463095413409	0	0	2	1
17	16	135.0850856548885	10	0	0	2	1
1	17	28.546181928784137	1.480338615961724	0	0	2	1
5	18	33.820187380211593	1.3498113738692283	0	0	2	1
19	18	61.728181552800443	9.1771483853380165	0	0	2	1
20	19	114.36640815573728	10	0	0	2	1
6	20	37.725597671673796	1.1533375721123988	0	0	2	1
10	21	39.956927702285043	1.0451735049617246	0	0	2	1
22	21	79.269350776635036	10	0	0	2	1
23	22	99.686415801570362	10	0	0	2	1
11	23	41.001161124080099	0.92337508134334056	0	0	2	1
24	26	90	0.88441250174552855	0	0	2	1
25	27	90	2.1353525459556622	0	0	2	1
29	117	14.999999999999998	2.5	1	0	1	1
30	46	5.625	0.87844626997857111	0	0	1	1
37	36	95.069312791074054	10	0	0	1	1
40	39	95.069312791073415	10	0	0	1	1
45	118	5.6249999999999982	0.87844626997857111	0	0	1	1
46	45	3.7499999999999991	0.87844626997857111	0	0	1	1
51	50	95.069312791073784	10	0	0	1	1
54	53	95.06931279107323	10	0	0	1	1
59	120	5.6249999999999885	0.87844626997857111	0	0	1	1
60	59	3.7500000000000036	0.87844626997857111	0	0	1	1
65	64	95.069312791073997	10	0	0	1	1
68	67	95.069312791073159	10	0	0	1	1
73	122	5.6250000000000009	0.87844626997857111	0	0	1	1
74	73	3.7499999999999973	0.87844626997857111	0	0	1	1
79	78	95.069312791074211	10	0	0	1	1
82	81	95.069312791073401	10	0	0	1	1
87	124	5.6250000000000089	0.87844626997857111	0	0	1	1
88	87	3.7499999999999902	0.87844626997857111	0	0	1	1
93	92	95.069312791074267	10	0	0	1	1
96	95	95.069312791073216	10	0	0	1	1
101	126	5.6250000000000107	0.87844626997857111	0	0	1	1
102	101	3.7499999999999964	0.87844626997857111	0	0	1	1
107	106	95.069312791073898	10	0	0	1	1
110	109	95.069312791073429	10	0	0	1	1
115	32	5.6250000000000107	0.87844626997857111	0	0	1	1
116	115	3.7499999999999973	0.87844626997857111	0	0	1	1
117	119	14.999999999999993	2.5	1	0	1	1
118	60	5.6249999999999947	0.87844626997857111	0	0	1	1
119	121	14.999999999999998	2.5	1	0	1	1
120	74	5.6250000000000071	0.87844626997857111	0	0	1	1
121	123	15.000000000000005	2.5	1	0	1	1
122	88	5.6250000000000062	0.87844626997857111	0	0	1	1
123	125	14.999999999999996	2.5	1	0	1	1
124	102	5.6249999999999876	0.87844626997857111	0	0	1	1
125	31	14.999999999999998	2.5	1	0	1	1
126	116	5.6249999999999911	0.87844626997857111	0	0	1	1
127	128	90	0.25	11	0	20	1
129	130	90	0.25	11	0	20	1
[NumHoles] = 0
[NumBlockLabels] = 34
19.879655961278445	33.349693404547324	7	2.5	0	0	2	1	0
11.979215410907834	36.74138433194566	7	2.5	0	0	2	1	0
4.0455045071832352	38.385455218991694	7	2.5	0	0	2	1	0
33.349693404547331	19.879655961278441	7	2.5	0	0	2	1	0
36.74138433194566	11.979215410907829	7	2.5	0	0	2	1	0
38.385455218991694	4.0455045071832281	7	2.5	0	0	2	1	0
12.462762805751712	12.46276280575171	1	2.5	0	0	22	1	0
5.9290903602492016	5.9290903602492007	7	2.5	0	0	2	1	0
45.087736854565939	5.9359131674668815	3	2.5	1	0	1	1	0
52.986822456404923	6.9758475156056212	3	2.5	1	0	1	1	0
40.777221913774923	5.368423109623957	7	2.5	0	0	1	1	0
62.032226364005886	8.1666975317280777	1	2.5	0	0	12	1	0
42.01508209893543	17.403216829598097	3	2.5	1	0	1	1	0
49.375858070865249	20.452150066761426	3	2.5	1	0	1	1	0
37.998321627896573	15.739420165689658	7	2.5	0	0	1	1	0
57.804832650399938	23.943545654502756	1	2.5	0	0	12	1	0
36.079168931468544	27.684520024967838	3	2.5	3	0	1	-1	0
42.400010555259627	32.53467238964349	3	2.5	3	0	1	-1	0
32.629898518272611	25.037801748085258	7	2.5	0	0	1	1	0
49.638135118671862	38.08868070950313	1	2.5	0	0	12	1	0
27.684520024967846	36.079168931468537	3	2.5	3	0	1	-1	0
32.53467238964349	42.400010555259627	3	2.5	3	0	1	-1	0
25.037801748085265	32.629898518272604	7	2.5	0	0	1	1	0
38.08868070950313	49.638135118671855	1	2.5	0	0	12	1	0
17.403216829598101	42.015082098935423	3	2.5	2	0	1	1	0
20.452150066761437	49.375858070865242	3	2.5	2	0	1	1	0
15.739420165689666	37.998321627896566	7	2.5	0	0	1	1	0
23.943545654502763	57.804832650399931	1	2.5	0	0	12	1	0
5.9359131674668912	45.087736854565939	3	2.5	2	0	1	1	0
6.9758475156056337	52.986822456404916	3	2.5	2	0	1	1	0
5.3684231096239694	40.777221913774923	7	2.5	0	0	1	1	0
8.1666975317280937	62.032226364005879	1	2.5	0	0	12	1	0
28.792798874265227	28.792798874265223	7	0.25	0	0	20	1	0
28.663162631047697	28.663162631047694	7	0.25	0	0	20	1	0
