[Format]      =  4.0
[Frequency]   =  0
[Precision]   =  1e-008
[MinAngle]    =  15
[DoSmartMesh] =  0
[Depth]       =  110
[LengthUnits] =  millimeters
[ProblemType] =  planar
[Coordinates] =  cartesian
[ACSolver]    =  0
[PrevType]    =  0
[PrevSoln]    =  ""
[Comment]     =  "Add comments here."
[PointProps]   = 0
[BdryProps]   = 11
  <BeginBdry>
    <BdryName> = "A=0"
    <BdryType> = 0
    <A_0> = 0
    <A_1> = 0
    <A_2> = 0
    <Phi> = 0
    <c0> = 0
    <c0i> = 0
    <c1> = 0
    <c1i> = 0
    <Mu_ssd> = 0
    <Sigma_ssd> = 0
    <innerangle> = 0
    <outerangle> = 0
  <EndBdry>
  <BeginBdry>
    <BdryName> = "APr1"
    <BdryType> = 5
    <A_0> = 0
    <A_1> = 0
    <A_2> = 0
    <Phi> = 0
    <c0> = 0
    <c0i> = 0
    <c1> = 0
    <c1i> = 0
    <Mu_ssd> = 0
    <Sigma_ssd> = 0
    <innerangle> = 0
    <outerangle> = 0
  <EndBdry>
  <BeginBdry>
    <BdryName> = "APr2"
    <BdryType> = 5
    <A_0> = 0
    <A_1> = 0
    <A_2> = 0
    <Phi> = 0
    <c0> = 0
    <c0i> = 0
    <c1> = 0
    <c1i> = 0
    <Mu_ssd> = 0
    <Sigma_ssd> = 0
    <innerangle> = 0
    <outerangle> = 0
  <EndBdry>
  <BeginBdry>
    <BdryName> = "APr3"
    <BdryType> = 5
    <A_0> = 0
    <A_1> = 0
    <A_2> = 0
    <Phi> = 0
    <c0> = 0
    <c0i> = 0
    <c1> = 0
    <c1i> = 0
    <Mu_ssd> = 0
    <Sigma_ssd> = 0
    <innerangle> = 0
    <outerangle> = 0
  <EndBdry>
  <BeginBdry>
    <BdryName> = "APg1"
    <BdryType> = 5
    <A_0> = 0
    <A_1> = 0
    <A_2> = 0
    <Phi> = 0
    <c0> = 0
    <c0i> = 0
    <c1> = 0
    <c1i> = 0
    <Mu_ssd> = 0
    <Sigma_ssd> = 0
    <innerangle> = 0
    <outerangle> = 0
  <EndBdry>
  <BeginBdry>
    <BdryName> = "APg2"
    <BdryType> = 5
    <A_0> = 0
    <A_1> = 0
    <A_2> = 0
    <Phi> = 0
    <c0> = 0
    <c0i> = 0
    <c1> = 0
    <c1i> = 0
    <Mu_ssd> = 0
    <Sigma_ssd> = 0
    <innerangle> = 0
    <outerangle> = 0
  <EndBdry>
  <BeginBdry>
    <BdryName> = "APg3"
    <BdryType> = 5
    <A_0> = 0
    <A_1> = 0
    <A_2> = 0
    <Phi> = 0
    <c0> = 0
    <c0i> = 0
    <c1> = 0
    <c1i> = 0
    <Mu_ssd> = 0
    <Sigma_ssd> = 0
    <innerangle> = 0
    <outerangle> = 0
  <EndBdry>
  <BeginBdry>
    <BdryName> = "APs1"
    <BdryType> = 5
    <A_0> = 0
    <A_1> = 0
    <A_2> = 0
    <Phi> = 0
    <c0> = 0
    <c0i> = 0
    <c1> = 0
    <c1i> = 0
    <Mu_ssd> = 0
    <Sigma_ssd> = 0
    <innerangle> = 0
    <outerangle> = 0
  <EndBdry>
  <BeginBdry>
    <BdryName> = "APs2"
    <BdryType> = 5
    <A_0> = 0
    <A_1> = 0
    <A_2> = 0
    <Phi> = 0
    <c0> = 0
    <c0i> = 0
    <c1> = 0
    <c1i> = 0
    <Mu_ssd> = 0
    <Sigma_ssd> = 0
    <innerangle> = 0
    <outerangle> = 0
  <EndBdry>
  <BeginBdry>
    <BdryName> = "APs3"
    <BdryType> = 5
    <A_0> = 0
    <A_1> = 0
    <A_2> = 0
    <Phi> = 0
    <c0> = 0
    <c0i> = 0
    <c1> = 0
    <c1i> = 0
    <Mu_ssd> = 0
    <Sigma_ssd> = 0
    <innerangle> = 0
    <outerangle> = 0
  <EndBdry>
  <BeginBdry>
    <BdryName> = "AGap"
    <BdryType> = 7
    <A_0> = 0
    <A_1> = 0
    <A_2> = 0
    <Phi> = 0
    <c0> = 0
    <c0i> = 0
    <c1> = 0
    <c1i> = 0
    <Mu_ssd> = 0
    <Sigma_ssd> = 0
    <innerangle> = 0
    <outerangle> = 0
  <EndBdry>
[BlockProps]  = 7
  <BeginBlock>
    <BlockName> = "M600-50A"
    <Mu_x> = 1
    <Mu_y> = 1
    <H_c> = 0
    <H_cAngle> = 0
    <J_re> = 0
    <J_im> = 0
    <Sigma> = 0
    <d_lam> = 0
    <Phi_h> = 0
    <Phi_hx> = 0
    <Phi_hy> = 0
    <LamType> = 0
    <LamFill> = 1
    <NStrands> = 0
    <WireD> = 0
    <BHPoints> = 208
      0	0
      0.0061294119999999999	8.2635015680000006
      0.012398954	15.54584049
      0.018188152999999999	21.42337126
      0.023698273999999998	26.396066560000001
      0.028962854999999999	30.670770340000001
      0.034031080999999998	34.409892589999998
      0.038937833999999998	37.72521158
      0.043710287	40.697869570000002
      0.048369641999999997	43.388214720000001
      0.052932743999999997	45.842257519999997
      0.057413198999999998	48.095830579999998
      0.061822165999999998	50.17736026
      0.066168929000000001	52.109762629999999
      0.070461307000000001	53.911772880000001
      0.074705967999999998	55.598898519999999
      0.078908651999999996	57.184116670000002
      0.083074354000000003	58.67839326
      0.087207454000000004	60.091076020000003
      0.091311829999999997	61.430196219999999
      0.095390935999999996	62.702703470000003
      0.099447875000000005	63.914650479999999
      0.10348545000000001	65.071340269999993
      0.107506212	66.177444339999994
      0.111512495	67.237098649999993
      0.115506446	68.253982050000005
      0.119490053	69.231381029999994
      0.123465163	70.172243330000001
      0.127433505	71.079222909999999
      0.131396704	71.954717669999994
      0.13535628999999999	72.800901379999999
      0.139313718	73.619750830000001
      0.14327037200000001	74.413069070000006
      0.147227575	75.182505329999998
      0.151186599	75.929572239999999
      0.15514867099999999	76.655660710000006
      0.15911497799999999	77.362052919999996
      0.16308667299999999	78.049933670000001
      0.167064883	78.720400249999997
      0.171050709	79.374471249999999
      0.17504523399999999	80.013094219999999
      0.17904952399999999	80.637152520000001
      0.183064634	81.247471390000001
      0.18709161099999999	81.844823349999999
      0.19113149500000001	82.429933079999998
      0.19518532499999999	83.003481679999993
      0.19925414	83.566110629999997
      0.203338983	84.118425299999998
      0.20744090200000001	84.6609981
      0.21156095499999999	85.194371430000004
      0.21570021	85.719060249999998
      0.21985974999999999	86.23555451
      0.224040674	86.744321339999999
      0.228244101	87.245807119999995
      0.232471172	87.740439260000002
      0.23672305199999999	88.228628009999994
      0.241000933	88.710768049999999
      0.245306038	89.187239969999993
      0.249639624	89.658411700000002
      0.25400298399999999	90.124639849999994
      0.258397449	90.586270990000003
      0.26282439699999999	91.043642790000007
      0.267285249	91.497085290000001
      0.27178147899999999	91.946921900000007
      0.27631461499999999	92.393470609999994
      0.28088624499999998	92.837044969999994
      0.28549801899999999	93.277955219999996
      0.29015165799999998	93.716509279999997
      0.294848956	94.153013889999997
      0.299591787	94.587775629999996
      0.30438211199999998	95.021102040000002
      0.30922198299999998	95.45330276
      0.31411355600000002	95.884690719999995
      0.31905909100000002	96.315583349999997
      0.324060968	96.746303900000001
      0.32912169099999999	97.177182860000002
      0.33424390300000001	97.608559369999995
      0.33943039400000002	98.040782919999998
      0.34468411100000002	98.474215020000003
      0.35000818	98.909231149999997
      0.35540591100000002	99.346222819999994
      0.36088082199999999	99.785599880000007
      0.366436651	100.2277931
      0.37207738099999998	100.67325700000001
      0.37780725700000001	101.1224732
      0.38363081700000001	101.57595360000001
      0.389552911	102.03424510000001
      0.39557873700000001	102.4979336
      0.401713873	102.9676498
      0.40796431599999999	103.44407510000001
      0.41433652900000001	103.9279489
      0.420837509	104.4200783
      0.42747497499999998	104.9213567
      0.43425898400000001	105.43288579999999
      0.44146202099999998	105.9749185
      0.44856258700000001	106.5079061
      0.45587690400000003	107.05707719999999
      0.46342101400000002	107.62377619999999
      0.47120716099999999	108.2090887
      0.47924850299999999	108.8142005
      0.48755929799999997	109.4404164
      0.496155022	110.0891769
      0.50505251799999995	110.7620768
      0.51427015700000001	111.4608879
      0.52382802100000003	112.1875854
      0.53374812500000002	112.944379
      0.54405466000000002	113.73375040000001
      0.55477427700000004	114.558498
      0.56593642099999997	115.4217907
      0.57757370900000005	116.3272333
      0.58972237000000005	117.2789456
      0.60242275199999995	118.28165920000001
      0.61571989900000001	119.3408371
      0.62966422099999997	120.4628209
      0.64431222899999996	121.65501310000001
      0.65972736300000001	122.92610569999999
      0.67598086099999999	124.28636400000001
      0.69315263800000004	125.74798269999999
      0.71133206000000004	127.3255305
      0.73061842099999996	129.03650049999999
      0.75112078999999998	130.90198509999999
      0.772956635	132.94748089999999
      0.79624826999999998	135.20380520000001
      0.82111564500000001	137.70804709999999
      0.84766332799999999	140.50436830000001
      0.87595905799999996	143.6442744
      0.90600166900000001	147.18571779999999
      0.93767904199999996	151.19014369999999
      0.97072398500000001	155.71669249999999
      1.0046871660000001	160.81373919999999
      1.0389539999999999	166.5100477
      1.0728218	172.80985770000001
      1.1056189649999999	179.69557180000001
      1.1368151129999999	187.13741469999999
      1.166076154	195.10516089999999
      1.1932571599999999	203.57694960000001
      1.2183581130000001	212.54344710000001
      1.2414717689999999	222.00841339999999
      1.262740478	231.98749659999999
      1.2823264919999999	242.50660869999999
      1.3003940249999999	253.6005657
      1.317099609	265.31223169999998
      1.332587655	277.69219570000001
      1.346989049	290.79894300000001
      1.360421377	304.69948410000001
      1.3729899480000001	319.47042970000001
      1.3847891750000001	335.19953839999999
      1.395904035	351.98780690000001
      1.406411522	369.95222330000001
      1.416382027	389.22936779999998
      1.4258806550000001	409.98013700000001
      1.4349684949999999	432.3959911
      1.443703884	456.70731569999998
      1.452143746	483.19477810000001
      1.460345062	512.205018
      1.468366627	544.17275689999997
      1.476271267	579.65265699999998
      1.484128812	619.36640990000001
      1.4920203320000001	664.27439319999996
      1.5000444559999999	715.68841520000001
      1.5083273020000001	775.45608200000004
      1.517038858	846.27605440000002
      1.52642144	932.26565330000005
      1.5368418420000001	1040.044543
      1.5488919160000001	1180.938134
      1.5635876129999999	1375.704356
      1.5827254589999999	1664.518061
      1.609038255	2120.3213700000001
      1.6429877180000001	2803.4219309999999
      1.6763000130000001	3588.174364
      1.7038913950000001	4346.5592559999996
      1.7268422349999999	5076.0393119999999
      1.746445904	5791.6494789999997
      1.7635818270000001	6506.5344940000004
      1.778835427	7231.1495919999998
      1.792609184	7974.1327339999998
      1.805191346	8743.1111569999994
      1.8167966790000001	9545.295204
      1.8275911469999999	10387.927960000001
      1.837707435	11278.663500000001
      1.8472551399999999	12225.930109999999
      1.8563277979999999	13239.325269999999
      1.865008022	14330.08987
      1.873371527	15511.71947
      1.8814906259999999	16800.793989999998
      1.88943763	18218.15107
      1.8972886259999999	19790.607090000001
      1.905128269	21553.57647
      1.913056538	23555.22162
      1.921199232	25863.341659999998
      1.92972568	28577.465530000001
      1.938881257	31851.611560000001
      1.949053186	35941.14198
      1.960921235	41311.621829999996
      1.975868577	48939.738250000002
      1.9972472800000001	61282.289870000001
      2.0280781640000001	81252.957920000001
      2.0737002590000002	113566.1776
      2.1433819129999998	165850.06529999999
      2.250195926	248560.18210000001
      2.3541325240000002	331270.29889999999
      2.4580691219999999	413980.41570000001
      2.5620057200000002	496690.53249999997
      2.665942319	579400.64930000005
      2.7698789170000002	662110.76610000001
      2.873815515	744820.88289999997
      2.9777521130000002	827530.99970000004
      3.081688711	910241.1165
  <EndBlock>
  <BeginBlock>
    <BlockName> = "ShaftAir"
    <Mu_x> = 1
    <Mu_y> = 1
    <H_c> = 0
    <H_cAngle> = 0
    <J_re> = 0
    <J_im> = 0
    <Sigma> = 0
    <d_lam> = 0
    <Phi_h> = 0
    <Phi_hx> = 0
    <Phi_hy> = 0
    <LamType> = 0
    <LamFill> = 1
    <NStrands> = 0
    <WireD> = 0
    <BHPoints> = 3
      -100	-7.9577471545947675e-011
      0	0
      100	7.9577471545947675e-011
  <EndBlock>
  <BeginBlock>
    <BlockName> = "Copper"
    <Mu_x> = 1
    <Mu_y> = 1
    <H_c> = 0
    <H_cAngle> = 0
    <J_re> = 0
    <J_im> = 0
    <Sigma> = 58
    <d_lam> = 0
    <Phi_h> = 0
    <Phi_hx> = 0
    <Phi_hy> = 0
    <LamType> = 0
    <LamFill> = 1
    <NStrands> = 0
    <WireD> = 0
    <BHPoints> = 0
  <EndBlock>
  <BeginBlock>
    <BlockName> = "Aluminium"
    <Mu_x> = 1
    <Mu_y> = 1
    <H_c> = 0
    <H_cAngle> = 0
    <J_re> = 0
    <J_im> = 0
    <Sigma> = 29
    <d_lam> = 0
    <Phi_h> = 0
    <Phi_hx> = 0
    <Phi_hy> = 0
    <LamType> = 0
    <LamFill> = 1
    <NStrands> = 0
    <WireD> = 0
    <BHPoints> = 0
  <EndBlock>
  <BeginBlock>
    <BlockName> = "Air"
    <Mu_x> = 1
    <Mu_y> = 1
    <H_c> = 0
    <H_cAngle> = 0
    <J_re> = 0
    <J_im> = 0
    <Sigma> = 0
    <d_lam> = 0
    <Phi_h> = 0
    <Phi_hx> = 0
    <Phi_hy> = 0
    <LamType> = 0
    <LamFill> = 1
    <NStrands> = 0
    <WireD> = 0
    <BHPoints> = 0
  <EndBlock>
  <BeginBlock>
    <BlockName> = "DW235"
    <Mu_x> = 1
    <Mu_y> = 1
    <H_c> = 0
    <H_cAngle> = 0
    <J_re> = 0
    <J_im> = 0
    <Sigma> = 0
    <d_lam> = 0
    <Phi_h> = 0
    <Phi_hx> = 0
    <Phi_hy> = 0
    <LamType> = 0
    <LamFill> = 1
    <NStrands> = 0
    <WireD> = 0
    <BHPoints> = 0
  <EndBlock>
  <BeginBlock>
    <BlockName> = "Air"
    <Mu_x> = 1
    <Mu_y> = 1
    <H_c> = 0
    <H_cAngle> = 0
    <J_re> = 0
    <J_im> = 0
    <Sigma> = 0
    <d_lam> = 0
    <Phi_h> = 0
    <Phi_hx> = 0
    <Phi_hy> = 0
    <LamType> = 0
    <LamFill> = 1
    <NStrands> = 0
    <WireD> = 0
    <BHPoints> = 0
  <EndBlock>
[CircuitProps]  = 6
  <BeginCircuit>
    <CircuitName> = "fase1"
    <TotalAmps_re> = 0
    <TotalAmps_im> = 0
    <CircuitType> = 1
  <EndCircuit>
  <BeginCircuit>
    <CircuitName> = "fase2"
    <TotalAmps_re> = 0
    <TotalAmps_im> = 0
    <CircuitType> = 1
  <EndCircuit>
  <BeginCircuit>
    <CircuitName> = "fase3"
    <TotalAmps_re> = 0
    <TotalAmps_im> = 0
    <CircuitType> = 1
  <EndCircuit>
  <BeginCircuit>
    <CircuitName> = "fase1n"
    <TotalAmps_re> = 0
    <TotalAmps_im> = 0
    <CircuitType> = 1
  <EndCircuit>
  <BeginCircuit>
    <CircuitName> = "fase2n"
    <TotalAmps_re> = 0
    <TotalAmps_im> = 0
    <CircuitType> = 1
  <EndCircuit>
  <BeginCircuit>
    <CircuitName> = "fase3n"
    <TotalAmps_re> = 0
    <TotalAmps_im> = 0
    <CircuitType> = 1
  <EndCircuit>
[NumPoints] = 131
46.965710656320674	27.115665690108813	0	2
45.099759043152282	26.038358023951226	0	2
45.2081553066878	36.637303685407062	0	2
44.594098032195014	38.78371334329632	0	2
43.397983427963503	38.501354771186193	0	2
42.019060435925759	24.259715853776886	0	2
38.840031761638876	22.424302792915814	0	2
40.202954429712214	40.274195707839496	0	2
39.045898844505196	44.364713268820623	0	2
37.714876682933919	44.074521098448784	0	2
35.770237578242806	20.651956294775346	0	2
31.278131842837414	18.058437839210782	0	2
34.17127855925429	44.804997918315578	0	2
32.85959496171953	49.122876737338345	0	2
30.074741778304869	48.356601141006308	0	2
54.332913371071655	20.832759111120371	0	2
55.884730024485627	19.227765083086361	0	2
55.042143025946196	18.333078736039361	0	2
54.979953814831312	14.679681989399153	0	2
57.943918144663819	11.632383678528633	0	2
57.027093272356822	10.624780758793758	0	2
55.887905693397329	7.1906963529509333	0	2
58.971456642366412	3.8958056262470748	0	2
56.915415917935462	1.8671898217660363	0	2
59.5	0	0	20
25	0	0	2
29.750000000000007	51.528511525174096	0	20
12.500000000000004	21.650635094610966	0	2
0	0	0	2
87.5	0	0	1
59.825000000000003	0	0	20
43.750000000000007	75.777222831138374	0	1
29.912500000000009	51.809969781404043	0	20
60.038153084706906	6.824675709313615	0	1
60.174642109575075	5.2645990163175114	0	1
60.507932139378532	8.1153830541566574	0	1
71.581404820960529	10.067935058057678	0	1
75.549612412436346	7.1074566827947132	0	1
75.606196611673042	6.6146850958335177	0	1
75.636040941648616	6.1195740734478106	0	1
72.242201014888082	2.5149999999999997	0	1
60.997902168019927	2.5149999999999992	0	1
60.311131134443244	3.7045223233214077	0	1
68.134259256277318	2.5149999999999997	0	1
67.535871928158031	9.3545984577130312	0	1
59.440436265851858	6.7723822636650199	0	1
59.713414315588196	3.6522288776728127	0	1
57.9409461342631	17.146509423973683	0	1
58.34626605891377	15.633834871857367	0	1
58.179459211173146	18.499184300794735	0	1
68.745643863486663	22.344961003997234	0	1
73.167647140020719	20.118530964277134	0	1
73.308940586208848	19.643071428055816	0	1
73.424306640532336	19.160664668122518	0	1
70.707954487295851	15.021518055709084	0	1
59.634481805713861	13.068966051808061	0	1
58.751585983564446	14.121160319741055	0	1
66.662421594493367	14.308181455364439	0	1
64.885441306301828	20.939962174943673	0	1
57.361390638489659	16.991217996912169	0	1
58.172030487791005	13.965868892679541	0	1
54.083232855063152	26.947355126338735	0	1
54.745068238687601	25.528044565918005	0	1
54.083232855063144	28.320897193492101	0	1
63.821081304195047	33.943046616926182	0	1
68.562519933871471	32.518313862877882	0	1
68.784229497146569	32.074612974810385	0	1
68.981611936635389	31.619568162620478	0	1
67.025282542558543	27.07161488655035	0	1
56.459097890245033	23.22583818334785	0	1
55.406903622312043	24.108734005497276	0	1
63.165079985373715	25.666616057496796	0	1
60.263499383971187	31.889075737620793	0	1
53.539448182841163	26.693784169294315	0	1
54.863118950090055	23.855163048452855	0	1
48.582227912998441	35.929419079209623	0	1
49.48046922237009	34.646597543657066	0	1
48.343714836088381	37.282093956030671	0	1
56.957347484500872	44.509789934410165	0	1
61.874155253840669	43.930044249815865	0	1
62.169544401313047	43.531583636862642	0	1
62.442945860423677	43.117727078770727	0	1
61.30608130419504	38.2991543979619	0	1
51.568232855063144	32.677004974527826	0	1
50.378710531741739	33.363776008104509	0	1
57.748499383971193	36.245183518656518	0	1
53.810481527660684	41.86925587066122	0	1
48.090736686425039	35.585273217398992	0	1
49.887219305168344	33.019630146293878	0	1
41.605076559590763	43.819785814522035	0	1
42.712431187056403	42.712431187056396	0	1
41.135297504919137	45.110493159365085	0	1
48.362993483298631	53.724125807777561	0	1
53.305775676255195	54.006982471898191	0	1
53.665869158153036	53.665869158153029	0	1
54.006982471898198	53.305775676255202	0	1
53.724125807777561	48.362993483298617	0	1
45.110493159365085	41.13529750491913	0	1
43.819785814522042	41.605076559590756	0	1
50.577259850937388	45.722459419549686	0	1
45.722459419549693	50.577259850937381	0	1
41.180812490878836	43.395521745810107	0	1
43.395521745810107	41.180812490878836	0	1
33.363776008104516	50.378710531741739	0	1
34.646597543657073	49.480469222370083	0	1
32.677004974527826	51.568232855063144	0	1
38.299154397961914	61.30608130419504	0	1
43.117727078770727	62.442945860423663	0	1
43.531583636862656	62.16954440131304	0	1
43.930044249815879	61.874155253840669	0	1
44.509789934410172	56.95734748450085	0	1
37.282093956030678	48.343714836088374	0	1
35.929419079209623	48.582227912998427	0	1
41.869255870661235	53.810481527660677	0	1
36.245183518656525	57.748499383971186	0	1
33.019630146293892	49.887219305168344	0	1
35.585273217398992	48.090736686425025	0	1
86.170678388568206	15.194215545856403	0	1
58.916123823955346	10.388502228924107	0	1
82.223104318766985	29.926762540996013	0	1
56.217111038516975	20.461355074458133	0	1
75.777222831138388	43.749999999999993	0	1
51.80996978140405	29.912499999999998	0	1
67.028888772910591	56.243915847572183	0	1
45.828608809592872	38.454768749497212	0	1
56.243915847572204	67.028888772910562	0	1
38.454768749497227	45.828608809592858	0	1
59.716666666666669	0	0	20
29.858333333333341	51.716150362660727	0	20
59.608333333333334	0	0	20
29.804166666666674	51.622330943917412	0	20
[NumSegments] = 96
0	1	1.6666666666666665	0	0	2
5	6	1.6666666666666665	0	0	2
10	11	1.6666666666666665	0	0	2
24	25	-1	4	0	2
27	26	-1	4	0	2
25	28	-1	2	0	2
28	27	-1	2	0	2
29	30	-1	10	0	1
32	31	-1	10	0	1
33	34	1.6666666666666665	0	0	1
35	33	1.6666666666666665	0	0	1
36	44	1.6666666666666665	0	0	1
38	37	1.6666666666666665	0	0	1
39	38	1.6666666666666665	0	0	1
41	43	1.6666666666666665	0	0	1
42	41	1.6666666666666665	0	0	1
34	42	1.6666666666666665	0	0	1
43	40	1.6666666666666665	0	0	1
44	35	1.6666666666666665	0	0	1
43	44	1.6666666666666665	0	0	1
33	45	1.6666666666666665	0	0	1
46	42	1.6666666666666665	0	0	1
47	48	1.6666666666666665	0	0	1
49	47	1.6666666666666665	0	0	1
50	58	1.6666666666666665	0	0	1
52	51	1.6666666666666665	0	0	1
53	52	1.6666666666666665	0	0	1
55	57	1.6666666666666665	0	0	1
56	55	1.6666666666666665	0	0	1
48	56	1.6666666666666665	0	0	1
57	54	1.6666666666666665	0	0	1
58	49	1.6666666666666665	0	0	1
57	58	1.6666666666666665	0	0	1
47	59	1.6666666666666665	0	0	1
60	56	1.6666666666666665	0	0	1
61	62	1.6666666666666665	0	0	1
63	61	1.6666666666666665	0	0	1
64	72	1.6666666666666665	0	0	1
66	65	1.6666666666666665	0	0	1
67	66	1.6666666666666665	0	0	1
69	71	1.6666666666666665	0	0	1
70	69	1.6666666666666665	0	0	1
62	70	1.6666666666666665	0	0	1
71	68	1.6666666666666665	0	0	1
72	63	1.6666666666666665	0	0	1
71	72	1.6666666666666665	0	0	1
61	73	1.6666666666666665	0	0	1
74	70	1.6666666666666665	0	0	1
75	76	1.6666666666666665	0	0	1
77	75	1.6666666666666665	0	0	1
78	86	1.6666666666666665	0	0	1
80	79	1.6666666666666665	0	0	1
81	80	1.6666666666666665	0	0	1
83	85	1.6666666666666665	0	0	1
84	83	1.6666666666666665	0	0	1
76	84	1.6666666666666665	0	0	1
85	82	1.6666666666666665	0	0	1
86	77	1.6666666666666665	0	0	1
85	86	1.6666666666666665	0	0	1
75	87	1.6666666666666665	0	0	1
88	84	1.6666666666666665	0	0	1
89	90	1.6666666666666665	0	0	1
91	89	1.6666666666666665	0	0	1
92	100	1.6666666666666665	0	0	1
94	93	1.6666666666666665	0	0	1
95	94	1.6666666666666665	0	0	1
97	99	1.6666666666666665	0	0	1
98	97	1.6666666666666665	0	0	1
90	98	1.6666666666666665	0	0	1
99	96	1.6666666666666665	0	0	1
100	91	1.6666666666666665	0	0	1
99	100	1.6666666666666665	0	0	1
89	101	1.6666666666666665	0	0	1
102	98	1.6666666666666665	0	0	1
103	104	1.6666666666666665	0	0	1
105	103	1.6666666666666665	0	0	1
106	114	1.6666666666666665	0	0	1
108	107	1.6666666666666665	0	0	1
109	108	1.6666666666666665	0	0	1
111	113	1.6666666666666665	0	0	1
112	111	1.6666666666666665	0	0	1
104	112	1.6666666666666665	0	0	1
113	110	1.6666666666666665	0	0	1
114	105	1.6666666666666665	0	0	1
113	114	1.6666666666666665	0	0	1
103	115	1.6666666666666665	0	0	1
116	112	1.6666666666666665	0	0	1
117	118	1.6666666666666665	0	0	1
119	120	1.6666666666666665	0	0	1
121	122	1.6666666666666665	0	0	1
123	124	1.6666666666666665	0	0	1
125	126	1.6666666666666665	0	0	1
127	30	0.16666666666666666	7	0	20
128	32	0.16666666666666666	7	0	20
129	24	0.16666666666666666	5	0	20
130	26	0.16666666666666666	5	0	20
[NumArcSegments] = 64
2	0	39.083504665067039	1.6494619687986518	0	0	2	1
2	3	50.097154209752659	9.0548914496574877	0	0	2	1
3	4	124.53722726926398	10	0	0	2	1
4	1	44.44912318604986	1.4357283076215259	0	0	2	1
7	5	47.060141229041733	1.1827072282091096	0	0	2	1
7	8	65.708760571421891	6.0933104703620318	0	0	2	1
8	9	107.30131539397009	10	0	0	2	1
9	6	54.050065263649685	1.0007195238533078	0	0	2	1
12	10	52.424960743862925	0.87126171812664166	0	0	2	1
12	13	78.645346669808319	6.7046848479892827	0	0	2	1
13	14	98.328599352010201	10	0	0	2	1
14	11	55.451014722044306	0.73258203401641331	0	0	2	1
0	15	39.083504665067082	1.6494619687986471	0	0	2	1
16	15	50.097154209752574	9.0548914496565747	0	0	2	1
17	16	124.53722726926438	10	0	0	2	1
1	17	44.44912318604986	1.4357283076215293	0	0	2	1
5	18	47.060141229041733	1.1827072282091091	0	0	2	1
19	18	65.708760571421948	6.0933104703618719	0	0	2	1
20	19	107.30131539397016	10	0	0	2	1
6	20	54.050065263649628	1.0007195238533078	0	0	2	1
10	21	52.424960743862869	0.87126171812664222	0	0	2	1
22	21	78.645346669808319	6.7046848479893741	0	0	2	1
23	22	98.328599352010642	10	0	0	2	1
11	23	55.451014722044235	0.73258203401641298	0	0	2	1
24	26	59.999999999999993	0.40123094897116468	0	0	2	1
25	27	59.999999999999993	0.95492965855137191	0	0	2	1
29	117	9.9999999999999964	1.6666666666666665	1	0	1	1
30	46	3.4999999999999996	0.39905125722999246	0	0	1	1
37	36	93.449504390828082	7.0215416069951457	0	0	1	1
40	39	93.449504390828082	7.0215416069950836	0	0	1	1
45	118	3.5000000000000027	0.39905125722999246	0	0	1	1
46	45	2.9999999999999987	0.39905125722999246	0	0	1	1
51	50	93.449504390828011	7.0215416069951297	0	0	1	1
54	53	93.449504390827997	7.0215416069950836	0	0	1	1
59	120	3.5000000000000049	0.39905125722999246	0	0	1	1
60	59	3.0000000000000004	0.39905125722999246	0	0	1	1
65	64	93.44950439082811	7.0215416069951821	0	0	1	1
68	67	93.449504390828196	7.0215416069950809	0	0	1	1
73	122	3.5000000000000018	0.39905125722999246	0	0	1	1
74	73	3.0000000000000004	0.39905125722999246	0	0	1	1
79	78	93.449504390827968	7.0215416069951457	0	0	1	1
82	81	93.449504390828054	7.0215416069950791	0	0	1	1
87	124	3.4999999999999956	0.39905125722999246	0	0	1	1
88	87	2.9999999999999978	0.39905125722999246	0	0	1	1
93	92	93.44950439082811	7.0215416069951448	0	0	1	1
96	95	93.449504390828139	7.0215416069950765	0	0	1	1
101	126	3.5000000000000013	0.39905125722999246	0	0	1	1
102	101	2.9999999999999942	0.39905125722999246	0	0	1	1
107	106	93.449504390828139	7.0215416069951582	0	0	1	1
110	109	93.449504390828082	7.0215416069950773	0	0	1	1
115	32	3.5000000000000044	0.39905125722999246	0	0	1	1
116	115	2.9999999999999973	0.39905125722999246	0	0	1	1
117	119	10	1.6666666666666665	1	0	1	1
118	60	3.5000000000000027	0.39905125722999246	0	0	1	1
119	121	9.9999999999999929	1.6666666666666665	1	0	1	1
120	74	3.5000000000000013	0.39905125722999246	0	0	1	1
121	123	9.9999999999999929	1.6666666666666665	1	0	1	1
122	88	3.5000000000000013	0.39905125722999246	0	0	1	1
123	125	9.9999999999999929	1.6666666666666665	1	0	1	1
124	102	3.5000000000000142	0.39905125722999246	0	0	1	1
125	31	10.000000000000009	1.6666666666666665	1	0	1	1
126	116	3.5000000000000173	0.39905125722999246	0	0	1	1
127	128	60	0.16666666666666666	11	0	20	1
129	130	60	0.16666666666666666	11	0	20	1
[NumHoles] = 0
[NumBlockLabels] = 34
44.400078922282113	37.974123933296525	7	1.6666666666666667	0	0	2	1	0
38.98790998571711	42.904476691702968	7	1.6666666666666667	0	0	2	1	0
32.368538433092887	47.428158598886739	7	1.6666666666666667	0	0	2	1	0
55.0865954738345	19.464534310082033	7	1.6666666666666667	0	0	2	1	0
56.650321743950656	12.312282142240516	7	1.6666666666666667	0	0	2	1	0
57.25825941789973	4.3178972669880125	7	1.6666666666666667	0	0	2	1	0
26.46438346872419	15.279218919605391	1	1.6666666666666667	0	0	22	1	0
10.825317547305485	6.2499999999999991	7	1.6666666666666667	0	0	2	1	0
64.004853850896367	5.5996991225870127	3	1.6666666666666667	1	0	1	1	0
71.665277333538953	6.2698993351260173	3	1.6666666666666667	1	0	1	1	0
59.885994961456881	5.2393456630980806	7	1.6666666666666667	0	0	1	1	0
81.386616347350383	7.1204062931268037	1	1.6666666666666667	0	0	12	1	0
62.060098754655677	16.628953343505714	3	1.6666666666666667	1	0	1	1	0
69.487764146139497	18.619190286802397	3	1.6666666666666667	1	0	1	1	0
58.066389308328645	15.558842122557838	7	1.6666666666666667	0	0	1	1	0
78.913725193251153	21.14486893726319	1	1.6666666666666667	0	0	12	1	0
58.229678961680023	27.152945231738396	3	1.6666666666666667	3	0	1	-1	0
65.198900407664865	30.402746563379182	3	1.6666666666666667	3	0	1	-1	0
54.482465799077595	25.405591037277677	7	1.6666666666666667	0	0	1	1	0
74.043080431426716	34.526855438560787	1	1.6666666666666667	0	0	12	1	0
52.629979839093011	36.85190861915796	3	1.6666666666666667	3	0	1	-1	0
58.929001072538846	41.262530770159763	3	1.6666666666666667	3	0	1	-1	0
49.243120135979517	34.4804039241792	7	1.6666666666666667	0	0	1	1	0
66.922674138299925	46.859760908789582	1	1.6666666666666667	0	0	12	1	0
45.431145411149963	45.431145411149956	3	1.6666666666666667	2	0	1	1	0
50.86857385933709	50.868573859337083	3	1.6666666666666667	2	0	1	1	0
42.507547185770804	42.507547185770804	7	1.6666666666666667	0	0	1	1	0
57.768856255987963	57.768856255987963	1	1.6666666666666667	0	0	12	1	0
36.851908619157967	52.629979839093004	3	1.6666666666666667	2	0	1	1	0
41.262530770159771	58.929001072538838	3	1.6666666666666667	2	0	1	1	0
34.480403924179207	49.24312013597951	7	1.6666666666666667	0	0	1	1	0
46.859760908789596	66.922674138299897	1	1.6666666666666667	0	0	12	1	0
51.763060072032388	29.885416666666664	7	0.16666666666666666	0	0	20	1	0
51.575421234545757	29.77708333333333	7	0.16666666666666666	0	0	20	1	0
