[Format]      =  4.0
[Frequency]   =  0
[Precision]   =  1e-008
[MinAngle]    =  15
[DoSmartMesh] =  0
[Depth]       =  134
[LengthUnits] =  millimeters
[ProblemType] =  planar
[Coordinates] =  cartesian
[ACSolver]    =  0
[PrevType]    =  0
[PrevSoln]    =  ""
[Comment]     =  "Add comments here."
[PointProps]   = 0
[BdryProps]   = 11
  <BeginBdry>
    <BdryName> = "A=0"
    <BdryType> = 0
    <A_0> = 0
    <A_1> = 0
    <A_2> = 0
    <Phi> = 0
    <c0> = 0
    <c0i> = 0
    <c1> = 0
    <c1i> = 0
    <Mu_ssd> = 0
    <Sigma_ssd> = 0
    <innerangle> = 0
    <outerangle> = 0
  <EndBdry>
  <BeginBdry>
    <BdryName> = "APr1"
    <BdryType> = 5
    <A_0> = 0
    <A_1> = 0
    <A_2> = 0
    <Phi> = 0
    <c0> = 0
    <c0i> = 0
    <c1> = 0
    <c1i> = 0
    <Mu_ssd> = 0
    <Sigma_ssd> = 0
    <innerangle> = 0
    <outerangle> = 0
  <EndBdry>
  <BeginBdry>
    <BdryName> = "APr2"
    <BdryType> = 5
    <A_0> = 0
    <A_1> = 0
    <A_2> = 0
    <Phi> = 0
    <c0> = 0
    <c0i> = 0
    <c1> = 0
    <c1i> = 0
    <Mu_ssd> = 0
    <Sigma_ssd> = 0
    <innerangle> = 0
    <outerangle> = 0
  <EndBdry>
  <BeginBdry>
    <BdryName> = "APr3"
    <BdryType> = 5
    <A_0> = 0
    <A_1> = 0
    <A_2> = 0
    <Phi> = 0
    <c0> = 0
    <c0i> = 0
    <c1> = 0
    <c1i> = 0
    <Mu_ssd> = 0
    <Sigma_ssd> = 0
    <innerangle> = 0
    <outerangle> = 0
  <EndBdry>
  <BeginBdry>
    <BdryName> = "APg1"
    <BdryType> = 5
    <A_0> = 0
    <A_1> = 0
    <A_2> = 0
    <Phi> = 0
    <c0> = 0
    <c0i> = 0
    <c1> = 0
    <c1i> = 0
    <Mu_ssd> = 0
    <Sigma_ssd> = 0
    <innerangle> = 0
    <outerangle> = 0
  <EndBdry>
  <BeginBdry>
    <BdryName> = "APg2"
    <BdryType> = 5
    <A_0> = 0
    <A_1> = 0
    <A_2> = 0
    <Phi> = 0
    <c0> = 0
    <c0i> = 0
    <c1> = 0
    <c1i> = 0
    <Mu_ssd> = 0
    <Sigma_ssd> = 0
    <innerangle> = 0
    <outerangle> = 0
  <EndBdry>
  <BeginBdry>
    <BdryName> = "APg3"
    <BdryType> = 5
    <A_0> = 0
    <A_1> = 0
    <A_2> = 0
    <Phi> = 0
    <c0> = 0
    <c0i> = 0
    <c1> = 0
    <c1i> = 0
    <Mu_ssd> = 0
    <Sigma_ssd> = 0
    <innerangle> = 0
    <outerangle> = 0
  <EndBdry>
  <BeginBdry>
    <BdryName> = "APs1"
    <BdryType> = 5
    <A_0> = 0
    <A_1> = 0
    <A_2> = 0
    <Phi> = 0
    <c0> = 0
    <c0i> = 0
    <c1> = 0
    <c1i> = 0
    <Mu_ssd> = 0
    <Sigma_ssd> = 0
    <innerangle> = 0
    <outerangle> = 0
  <EndBdry>
  <BeginBdry>
    <BdryName> = "APs2"
    <BdryType> = 5
    <A_0> = 0
    <A_1> = 0
    <A_2> = 0
    <Phi> = 0
    <c0> = 0
    <c0i> = 0
    <c1> = 0
    <c1i> = 0
    <Mu_ssd> = 0
    <Sigma_ssd> = 0
    <innerangle> = 0
    <outerangle> = 0
  <EndBdry>
  <BeginBdry>
    <BdryName> = "APs3"
    <BdryType> = 5
    <A_0> = 0
    <A_1> = 0
    <A_2> = 0
    <Phi> = 0
    <c0> = 0
    <c0i> = 0
    <c1> = 0
    <c1i> = 0
    <Mu_ssd> = 0
    <Sigma_ssd> = 0
    <innerangle> = 0
    <outerangle> = 0
  <EndBdry>
  <BeginBdry>
    <BdryName> = "AGap"
    <BdryType> = 7
    <A_0> = 0
    <A_1> = 0
    <A_2> = 0
    <Phi> = 0
    <c0> = 0
    <c0i> = 0
    <c1> = 0
    <c1i> = 0
    <Mu_ssd> = 0
    <Sigma_ssd> = 0
    <innerangle> = 0
    <outerangle> = 0
  <EndBdry>
[BlockProps]  = 9
  <BeginBlock>
    <BlockName> = "M270-35A"
    <Mu_x> = 1
    <Mu_y> = 1
    <H_c> = 0
    <H_cAngle> = 0
    <J_re> = 0
    <J_im> = 0
    <Sigma> = 0
    <d_lam> = 0
    <Phi_h> = 0
    <Phi_hx> = 0
    <Phi_hy> = 0
    <LamType> = 0
    <LamFill> = 1
    <NStrands> = 0
    <WireD> = 0
    <BHPoints> = 200
      0	0
      0.0045422769999999999	3.2767874890000002
      0.0090353559999999996	6.114592773
      0.013222249	8.4602422570000009
      0.017196487	10.462328400000001
      0.020991169	12.199266809999999
      0.024640190999999999	13.72982376
      0.028168996000000002	15.09561901
      0.031597466999999997	16.327217480000002
      0.034941272000000002	17.447599879999999
      0.038212956999999999	18.47443998
      0.041422729999999998	19.421601849999998
      0.044579012000000001	20.300151339999999
      0.047688851999999997	21.119056130000001
      0.050758219	21.885681389999998
      0.053792226999999998	22.60614816
      0.056795300999999999	23.285597330000002
      0.059771310000000001	23.928387470000001
      0.062723663999999998	24.538245379999999
      0.065655396000000005	25.11838217
      0.068569221	25.67158405
      0.071467592999999996	26.200284
      0.074352739000000001	26.70661905
      0.077226698999999996	27.19247648
      0.080091349000000006	27.65953137
      0.082948429000000004	28.109277410000001
      0.085799557999999998	28.54305239
      0.088646256000000007	28.96205934
      0.091489953999999998	29.36738437
      0.094332005999999996	29.760011540000001
      0.097173704999999999	30.140835630000002
      0.100016285	30.510672870000001
      0.102860934	30.870270300000001
      0.105708802	31.220313650000001
      0.108561001	31.561434299999998
      0.11141862	31.894215259999999
      0.114282722	32.21919639
      0.117154355	32.536878999999999
      0.120034552	32.847729870000002
      0.12292433699999999	33.152184810000001
      0.12582473199999999	33.45065185
      0.12873675200000001	33.743513989999997
      0.13166142	34.031131799999997
      0.13459976100000001	34.313845620000002
      0.137552811	34.591977620000002
      0.14052161499999999	34.865833639999998
      0.14350723800000001	35.135704879999999
      0.14651076099999999	35.401869419999997
      0.14953328699999999	35.664593680000003
      0.15257594699999999	35.924133650000002
      0.155639899	36.180736189999998
      0.158726334	36.434640119999997
      0.161836481	36.686077320000003
      0.16497160599999999	36.93527375
      0.16813302299999999	37.182450420000002
      0.17132209400000001	37.427824389999998
      0.17454023399999999	37.671609650000001
      0.17778891699999999	37.914018050000003
      0.18106968000000001	38.155260249999998
      0.18438413100000001	38.395546590000002
      0.18773395400000001	38.635088090000004
      0.191120915	38.87409736
      0.19454686800000001	39.112789630000002
      0.19801376800000001	39.351383830000003
      0.20152367299999999	39.590103640000002
      0.20507876	39.829178749999997
      0.208681327	40.068846100000002
      0.21233381500000001	40.309351300000003
      0.216038808	40.550950149999998
      0.21979905799999999	40.793910310000001
      0.22361749	41.038513199999997
      0.227497227	41.285056060000002
      0.2314416	41.53385428
      0.23545417299999999	41.785244059999997
      0.23953876299999999	42.039585369999998
      0.24369946200000001	42.297265359999997
      0.247940667	42.558702250000003
      0.25226710400000002	42.824349750000003
      0.25668386300000001	43.0947022
      0.26119642799999998	43.370300520000001
      0.26581071499999998	43.651739030000002
      0.27054201700000002	43.94020278
      0.275438138	44.23873004
      0.28051031599999998	44.548036490000001
      0.28576849199999999	44.868763260000001
      0.29122336399999998	45.201605100000002
      0.296886504	45.547319020000003
      0.30277045699999999	45.906731970000003
      0.30888884599999999	46.280749559999997
      0.31525650100000002	46.670366299999998
      0.321889598	47.076677459999999
      0.328805825	47.50089294
      0.33602457000000002	47.944353649999996
      0.34356714500000002	48.408550759999997
      0.351457032	48.895148689999999
      0.35972019	49.406012390000001
      0.36838539799999998	49.943240269999997
      0.37748466600000002	50.509203810000002
      0.38705371900000002	51.106595769999998
      0.39713256899999999	51.738489119999997
      0.40776619800000002	52.408409570000003
      0.41900536300000002	53.120425429999997
      0.43090757000000002	53.879259759999997
      0.44353822799999998	54.690431349999997
      0.45697202599999998	55.560433060000001
      0.47129457299999999	56.49695913
      0.486604327	57.509196449999997
      0.503014823	58.60819978
      0.520657166	59.807376320000003
      0.53968265500000001	61.123111049999999
      0.56026517099999995	62.575567960000001
      0.58260257699999995	64.189698669999999
      0.60691558199999995	65.996464399999994
      0.63344113800000001	68.034201780000004
      0.662415215	70.349880479999996
      0.69403682899999997	72.999622560000006
      0.72840307800000004	76.047204840000006
      0.76540934699999996	79.558509650000005
      0.80463064699999998	83.589963030000007
      0.84524547999999999	88.171938179999998
      0.88609953900000005	93.294734669999997
      0.92594964300000004	98.90894376
      0.963771241	104.9435902
      0.99893980100000002	111.3300564
      1.0312218310000001	118.0174305
      1.0606584889999999	124.9760964
      1.0874410889999999	132.19454709999999
      1.1118223309999999	139.6744898
      1.1340651580000001	147.42664859999999
      1.1544176930000001	155.46782519999999
      1.173103241	163.8190534
      1.1903180360000001	172.50453999999999
      1.2062325739999999	181.55112829999999
      1.220994358	190.98810510000001
      1.234730984	200.84723579999999
      1.2475531	211.16296399999999
      1.2595570490000001	221.97273730000001
      1.270827143	233.31744900000001
      1.281437594	245.2419931
      1.291454146	257.79594609999998
      1.3009354369999999	271.03439809999998
      1.309934159	285.01896390000002
      1.318498043	299.81902289999999
      1.326670706	315.51324579999999
      1.3344924010000001	332.19149570000002
      1.3420006879999999	349.95721329999998
      1.3492310569999999	368.93044570000001
      1.356217531	389.25173360000002
      1.362993272	411.08716509999999
      1.3695912379999999	434.63503709999998
      1.3760449050000001	460.1347695
      1.382389146	487.87903890000001
      1.3886613240000001	518.23060969999995
      1.394902732	551.64618570000005
      1.401160583	588.71104339999999
      1.4074908660000001	630.19074279999995
      1.4139626249999999	677.11087850000001
      1.420664664	730.8848299
      1.4277165590000001	793.52783980000004
      1.435287779	868.03580320000003
      1.4436331710000001	959.10175079999999
      1.453164339	1074.5891859999999
      1.464608755	1228.9034079999999
      1.479413587	1451.8548430000001
      1.5007295060000001	1812.597843
      1.531321148	2396.2922779999999
      1.5749716949999999	3340.7297119999998
      1.6351726849999999	4868.8615820000005
      1.6746062129999999	6056.7860730000002
      1.7053540309999999	7126.7301200000002
      1.7307497590000001	8135.9466300000004
      1.752580204	9119.3875740000003
      1.771845345	10098.25848
      1.789165838	11087.22133
      1.804957089	12097.58993
      1.819514077	13138.977849999999
      1.8330565510000001	14220.25051
      1.845754994	15350.15127
      1.8577465099999999	16537.778849999999
      1.869145125	17793.012470000001
      1.8800488470000001	19126.948680000001
      1.8905448170000001	20552.403480000001
      1.9007133519999999	22084.53774
      1.9106314310000001	23741.68173
      1.920376064	25546.46932
      1.930027954	27527.455720000002
      1.9396760099999999	29721.505959999999
      1.9494234969999999	32177.45292
      1.959397184	34961.935420000002
      1.969762051	38169.180130000001
      1.980746793	41938.394229999998
      1.9926918389999999	46487.096960000003
      2.0061495709999999	52181.595710000001
      2.022124024	59707.652569999998
      2.042772002	70576.241299999994
      2.0725625070000002	88161.987269999998
      2.1158769670000002	116616.322
      2.1803765140000002	162656.4026
      2.2792825830000001	237150.818
      2.3747656959999999	310949.48619999998
  <EndBlock>
  <BeginBlock>
    <BlockName> = "ShaftAir"
    <Mu_x> = 1
    <Mu_y> = 1
    <H_c> = 0
    <H_cAngle> = 0
    <J_re> = 0
    <J_im> = 0
    <Sigma> = 0
    <d_lam> = 0
    <Phi_h> = 0
    <Phi_hx> = 0
    <Phi_hy> = 0
    <LamType> = 0
    <LamFill> = 1
    <NStrands> = 0
    <WireD> = 0
    <BHPoints> = 3
      -100	-7.9577471545947675e-011
      0	0
      100	7.9577471545947675e-011
  <EndBlock>
  <BeginBlock>
    <BlockName> = "Copper"
    <Mu_x> = 1
    <Mu_y> = 1
    <H_c> = 0
    <H_cAngle> = 0
    <J_re> = 0
    <J_im> = 0
    <Sigma> = 58
    <d_lam> = 0
    <Phi_h> = 0
    <Phi_hx> = 0
    <Phi_hy> = 0
    <LamType> = 0
    <LamFill> = 1
    <NStrands> = 0
    <WireD> = 0
    <BHPoints> = 0
  <EndBlock>
  <BeginBlock>
    <BlockName> = "Aluminium"
    <Mu_x> = 1
    <Mu_y> = 1
    <H_c> = 0
    <H_cAngle> = 0
    <J_re> = 0
    <J_im> = 0
    <Sigma> = 29
    <d_lam> = 0
    <Phi_h> = 0
    <Phi_hx> = 0
    <Phi_hy> = 0
    <LamType> = 0
    <LamFill> = 1
    <NStrands> = 0
    <WireD> = 0
    <BHPoints> = 0
  <EndBlock>
  <BeginBlock>
    <BlockName> = "BMN-52UH"
    <Mu_x> = 1.05
    <Mu_y> = 1.05
    <H_c> = 1098926.9880154678
    <H_cAngle> = 0
    <J_re> = 0
    <J_im> = 0
    <Sigma> = 0.66600000000000004
    <d_lam> = 0
    <Phi_h> = 0
    <Phi_hx> = 0
    <Phi_hy> = 0
    <LamType> = 0
    <LamFill> = 1
    <NStrands> = 0
    <WireD> = 0
    <BHPoints> = 0
  <EndBlock>
  <BeginBlock>
    <BlockName> = "DW235"
    <Mu_x> = 1
    <Mu_y> = 1
    <H_c> = 0
    <H_cAngle> = 0
    <J_re> = 0
    <J_im> = 0
    <Sigma> = 0
    <d_lam> = 0
    <Phi_h> = 0
    <Phi_hx> = 0
    <Phi_hy> = 0
    <LamType> = 0
    <LamFill> = 1
    <NStrands> = 0
    <WireD> = 0
    <BHPoints> = 0
  <EndBlock>
  <BeginBlock>
    <BlockName> = "Air"
    <Mu_x> = 1
    <Mu_y> = 1
    <H_c> = 0
    <H_cAngle> = 0
    <J_re> = 0
    <J_im> = 0
    <Sigma> = 0
    <d_lam> = 0
    <Phi_h> = 0
    <Phi_hx> = 0
    <Phi_hy> = 0
    <LamType> = 0
    <LamFill> = 1
    <NStrands> = 0
    <WireD> = 0
    <BHPoints> = 0
  <EndBlock>
  <BeginBlock>
    <BlockName> = "BMN-52UH_1"
    <Mu_x> = 1.05
    <Mu_y> = 1.05
    <H_c> = 1098926.9880154678
    <H_cAngle> = 0
    <J_re> = 0
    <J_im> = 0
    <Sigma> = 0.66600000000000004
    <d_lam> = 0
    <Phi_h> = 0
    <Phi_hx> = 0
    <Phi_hy> = 0
    <LamType> = 0
    <LamFill> = 1
    <NStrands> = 0
    <WireD> = 0
    <BHPoints> = 0
  <EndBlock>
  <BeginBlock>
    <BlockName> = "BMN-52UH_2"
    <Mu_x> = 1.05
    <Mu_y> = 1.05
    <H_c> = 1098926.9880154678
    <H_cAngle> = 0
    <J_re> = 0
    <J_im> = 0
    <Sigma> = 0.66600000000000004
    <d_lam> = 0
    <Phi_h> = 0
    <Phi_hx> = 0
    <Phi_hy> = 0
    <LamType> = 0
    <LamFill> = 1
    <NStrands> = 0
    <WireD> = 0
    <BHPoints> = 0
  <EndBlock>
[CircuitProps]  = 6
  <BeginCircuit>
    <CircuitName> = "fase1"
    <TotalAmps_re> = 0
    <TotalAmps_im> = 0
    <CircuitType> = 1
  <EndCircuit>
  <BeginCircuit>
    <CircuitName> = "fase2"
    <TotalAmps_re> = 0
    <TotalAmps_im> = 0
    <CircuitType> = 1
  <EndCircuit>
  <BeginCircuit>
    <CircuitName> = "fase3"
    <TotalAmps_re> = 0
    <TotalAmps_im> = 0
    <CircuitType> = 1
  <EndCircuit>
  <BeginCircuit>
    <CircuitName> = "fase1n"
    <TotalAmps_re> = 0
    <TotalAmps_im> = 0
    <CircuitType> = 1
  <EndCircuit>
  <BeginCircuit>
    <CircuitName> = "fase2n"
    <TotalAmps_re> = 0
    <TotalAmps_im> = 0
    <CircuitType> = 1
  <EndCircuit>
  <BeginCircuit>
    <CircuitName> = "fase3n"
    <TotalAmps_re> = 0
    <TotalAmps_im> = 0
    <CircuitType> = 1
  <EndCircuit>
[NumPoints] = 177
44.059761390709347	32.323000383113779	0	2
47.783320335319196	30.520574637186126	0	2
50.189288675894446	31.909661106278961	0	2
50.678712253738382	32.920741615476771	0	2
47.61290963279604	53.832638439319126	0	2
44.522701409843336	59.045165417415284	0	2
40.492428056953301	56.655847547563688	0	2
50.620690211573034	33.316511046614352	0	2
44.253104916341947	32.382986945398628	0	2
47.628203386895066	53.728319457534951	0	2
41.260618091663979	52.794795356319227	0	2
50.323253141561814	26.121281968962915	0	2
50.022420153665358	21.995372457478183	0	2
52.729221482137064	27.51036843805575	0	2
53.849554677295643	27.428681435080765	0	2
70.426887257591062	14.317670070434598	0	2
73.395963927057721	9.0352077573259137	0	2
69.311617277605095	6.7395475844534616	0	2
54.163290037619433	27.180548157017331	0	2
50.171041803306032	22.132819581190841	0	2
70.344191246318559	14.383074340895678	0	2
66.351943012005151	9.3353457650691887	0	2
74.950000000000003	0	0	20
34.75	0	0	2
37.475000000000009	64.908604013643682	0	20
17.375000000000004	30.094382781509243	0	2
0	0	0	2
112.5	0	0	1
75.650000000000006	0	0	20
56.250000000000014	97.427857925749336	0	1
37.82500000000001	65.514821796292779	0	20
76.440284661047372	5.6644521121924294	0	1
76.510655107869965	4.4562382008168333	0	1
76.668871491120001	6.7714991690286075	0	1
91.502655903032178	8.5053199044655337	0	1
94.285717618404021	6.2114366752032222	0	1
94.340120956634848	5.4946863320399659	0	1
94.369295110352851	4.7764665562121618	0	1
91.871355051430527	2.1750000000000003	0	1
76.936587081297205	2.1749999999999998	0	1
76.581025554692559	3.2480242894412372	0	1
85.559244512573585	2.1750000000000003	0	1
85.233225597532297	7.772528597729055	0	1
75.4419765027761	5.6063072832819536	0	1
75.582717396421288	3.1898794605307614	0	1
75.265820049438091	14.500326516285016	0	1
75.475979750331973	13.308451625389278	0	1
75.364340938238996	15.626425428193812	0	1
89.896540304877064	19.070619947962413	0	1
92.927087541295521	17.115340881206009	0	1
93.064332659653672	16.409752789524919	0	1
93.176689774939263	15.699776271406186	0	1
90.997651726587449	12.825906760642988	0	1
76.163867314675258	11.092086025206061	0	1
75.686139451225841	12.116576734493542	0	1
84.728221421087568	12.093115453906508	0	1
83.75457352250946	17.614947079821388	0	1
74.281012296425885	14.326678338618084	0	1
74.701331698213636	11.942928556826612	0	1
73.073514338961616	23.140108879321325	0	1
73.420621244497767	21.980691072162642	0	1
73.040636960480768	24.270031090323712	0	1
87.074728215164768	29.378022572004312	0	1
90.311778020112243	27.787789462881967	0	1
90.530008913813688	27.10290549119803	0	1
90.724029553429475	26.410773445242643	0	1
88.893361267147455	23.303365134984645	0	1
74.361161900509373	19.859170615216044	0	1
73.767728150033918	20.82127326500396	0	1
82.751394484779865	21.84769226684362	0	1
81.143284520215929	27.219153620817	0	1
72.115524826646123	22.853305646610231	0	1
72.809738637718425	20.534470032292869	0	1
69.89301470348704	31.466960966248713	0	1
70.372374788224391	30.355679379706345	0	1
69.729183667867758	32.58542621680423	0	1
83.07537980163552	39.288137838284179	0	1
86.475156629606857	38.084455861577496	0	1
86.771422100185902	37.429537890700317	0	1
87.04448246782033	36.76461021548846	0	1
85.586940591698124	33.465685472423019	0	1
71.552849337014109	28.357693990742412	0	1
70.851734872961728	29.244397793163969	0	1
79.655496896749298	31.306816521235703	0	1
77.43467179478354	36.455267803110488	0	1
68.97479859660676	31.070881200209559	0	1
69.933518766081463	28.848318027124812	0	1
65.767331944488248	39.368276387172074	0	1
66.372462685615233	38.320159198318336	0	1
65.474762785437818	40.460159353476065	0	1
77.952579390764512	48.66694843846863	0	1
81.469107092423755	47.866095328015533	0	1
81.839400657629454	47.25	0	1
82.187808080240956	46.621268701666196	0	1
81.12310336776352	43.175439823691036	0	1
67.776907233995743	36.472728202211073	0	1
66.977593426742203	37.272042009464613	0	1
75.482395360911553	40.342569788517338	0	1
72.678887971258391	45.198387026791387	0	1
64.901306540703814	38.868276387172074	0	1
66.111568022957769	36.772042009464613	0	1
60.752258843738453	46.737203405602685	0	1
61.474976886073335	45.7664246013887	0	1
60.33490805723531	47.787738243643531	0	1
71.775604070027228	57.387622048388607	0	1
75.361327640756073	57.000427968657377	0	1
75.800641715351645	56.431486915913297	0	1
76.219684580236702	55.84745450668909	0	1
75.562215336156513	52.301320418114905	0	1
63.084398730829804	44.09453133312234	0	1
62.197694928408232	44.795645797174707	0	1
70.288523916650405	48.832759006437662	0	1
66.940246867383138	53.330275603039546	0	1
59.950135650983398	46.140044813899898	0	1
61.395571735653192	44.198487205471913	0	1
54.915615661648154	53.474089924891842	0	1
55.746147483479547	52.593777623289185	0	1
54.379127201121229	54.46906995316062	0	1
64.627986834135015	65.332226517645012	0	1
68.23441551389034	65.363927604338798	0	1
68.736809128653107	64.849834778595323	0	1
69.220820599925432	64.318399294917299	0	1
68.979477967890787	60.71991537595617	0	1
57.538781955098855	51.120031571211086	0	1
56.576679305310932	51.713465321686535	0	1
64.144120765246683	56.662568930607101	0	1
60.296353759541319	60.740963688985019	0	1
54.188242020075101	52.787848287023103	0	1
55.84930566373788	51.027223683817802	0	1
48.336332984587827	59.487831111886429	0	1
49.2634470677894	58.709890026612719	0	1
47.687961936128431	60.413800932373015	0	1
56.606386944581118	72.393324699632103	0	1
60.18474997223953	72.843492249936062	0	1
60.743429115377978	72.391199874743435	0	1
61.285863768202489	71.919548069859317	0	1
61.463911493292258	68.317377642374026	0	1
51.215051860278464	57.454221077889621	0	1
50.19056115099098	57.931948941339016	0	1
57.132278418698576	63.726114813714027	0	1
52.837055904524988	67.330234441181418	0	1
47.693545374901284	58.72178666876745	0	1
49.547773541304437	57.16590449822003	0	1
41.103384324111296	64.697101433508422	0	1
42.11454304115702	64.032051883196587	0	1
40.351898793879755	65.541538892877043	0	1
47.819282778946416	78.47542735463864	0	1
51.321188933182938	79.337973624690093	0	1
51.928598427691178	78.953598178522498	0	1
52.522120763926345	78.548108333982285	0	1
53.117151056096681	74.99096457353923	0	1
44.198726047643987	63.01144080628012	0	1
43.125701758202752	63.367002332884759	0	1
49.347820016040558	69.927874315088545	0	1
44.663227509517938	73.008979276493037	0	1
40.553875346040485	63.861613622095476	0	1
42.57619278013194	62.53151452147182	0	1
111.73931524596858	13.060452839088402	0	1
75.138481763177992	8.7824289535736675	0	1
109.46754794023018	25.944285458524519	0	1
73.610844459363676	17.446090621665601	0	1
105.7154198384147	38.477266124137728	0	1
71.087746762453975	25.873823842586841	0	1
100.53367203638388	50.489907772551994	0	1
67.603309240466146	33.951657982164967	0	1
93.99237878395536	61.819760032965661	0	1
63.204652933388651	41.570354191056467	0	1
86.179999850885039	72.313606089735671	0	1
57.951262121950698	48.626882672786699	0	1
77.202184260232542	81.829534676967967	0	1
51.914179904769711	55.025815985001131	0	1
67.180341566563456	90.238859184942413	0	1
45.175047462315788	60.680619531919064	0	1
75.416666666666671	0	0	20
37.708333333333343	65.312749202076418	0	20
75.183333333333337	0	0	20
37.591666666666676	65.110676607860043	0	20
[NumSegments] = 151
2	1	1.6666666666666665	0	0	2
4	9	1.6666666666666665	0	0	2
0	6	1.6666666666666665	0	0	2
7	3	1.6666666666666665	0	0	2
7	8	1.6666666666666665	0	0	2
9	7	1.6666666666666665	0	0	2
10	9	1.6666666666666665	0	0	2
8	10	1.6666666666666665	0	0	2
13	11	1.6666666666666665	0	0	2
15	20	1.6666666666666665	0	0	2
12	17	1.6666666666666665	0	0	2
18	14	1.6666666666666665	0	0	2
18	19	1.6666666666666665	0	0	2
20	18	1.6666666666666665	0	0	2
21	20	1.6666666666666665	0	0	2
19	21	1.6666666666666665	0	0	2
22	23	-1	4	0	2
25	24	-1	4	0	2
23	26	-1	2	0	2
26	25	-1	2	0	2
27	28	-1	10	0	1
30	29	-1	10	0	1
31	32	1.6666666666666665	0	0	1
33	31	1.6666666666666665	0	0	1
34	42	1.6666666666666665	0	0	1
36	35	1.6666666666666665	0	0	1
37	36	1.6666666666666665	0	0	1
39	41	1.6666666666666665	0	0	1
40	39	1.6666666666666665	0	0	1
32	40	1.6666666666666665	0	0	1
41	38	1.6666666666666665	0	0	1
42	33	1.6666666666666665	0	0	1
41	42	1.6666666666666665	0	0	1
31	43	1.6666666666666665	0	0	1
44	40	1.6666666666666665	0	0	1
45	46	1.6666666666666665	0	0	1
47	45	1.6666666666666665	0	0	1
48	56	1.6666666666666665	0	0	1
50	49	1.6666666666666665	0	0	1
51	50	1.6666666666666665	0	0	1
53	55	1.6666666666666665	0	0	1
54	53	1.6666666666666665	0	0	1
46	54	1.6666666666666665	0	0	1
55	52	1.6666666666666665	0	0	1
56	47	1.6666666666666665	0	0	1
55	56	1.6666666666666665	0	0	1
45	57	1.6666666666666665	0	0	1
58	54	1.6666666666666665	0	0	1
59	60	1.6666666666666665	0	0	1
61	59	1.6666666666666665	0	0	1
62	70	1.6666666666666665	0	0	1
64	63	1.6666666666666665	0	0	1
65	64	1.6666666666666665	0	0	1
67	69	1.6666666666666665	0	0	1
68	67	1.6666666666666665	0	0	1
60	68	1.6666666666666665	0	0	1
69	66	1.6666666666666665	0	0	1
70	61	1.6666666666666665	0	0	1
69	70	1.6666666666666665	0	0	1
59	71	1.6666666666666665	0	0	1
72	68	1.6666666666666665	0	0	1
73	74	1.6666666666666665	0	0	1
75	73	1.6666666666666665	0	0	1
76	84	1.6666666666666665	0	0	1
78	77	1.6666666666666665	0	0	1
79	78	1.6666666666666665	0	0	1
81	83	1.6666666666666665	0	0	1
82	81	1.6666666666666665	0	0	1
74	82	1.6666666666666665	0	0	1
83	80	1.6666666666666665	0	0	1
84	75	1.6666666666666665	0	0	1
83	84	1.6666666666666665	0	0	1
73	85	1.6666666666666665	0	0	1
86	82	1.6666666666666665	0	0	1
87	88	1.6666666666666665	0	0	1
89	87	1.6666666666666665	0	0	1
90	98	1.6666666666666665	0	0	1
92	91	1.6666666666666665	0	0	1
93	92	1.6666666666666665	0	0	1
95	97	1.6666666666666665	0	0	1
96	95	1.6666666666666665	0	0	1
88	96	1.6666666666666665	0	0	1
97	94	1.6666666666666665	0	0	1
98	89	1.6666666666666665	0	0	1
97	98	1.6666666666666665	0	0	1
87	99	1.6666666666666665	0	0	1
100	96	1.6666666666666665	0	0	1
101	102	1.6666666666666665	0	0	1
103	101	1.6666666666666665	0	0	1
104	112	1.6666666666666665	0	0	1
106	105	1.6666666666666665	0	0	1
107	106	1.6666666666666665	0	0	1
109	111	1.6666666666666665	0	0	1
110	109	1.6666666666666665	0	0	1
102	110	1.6666666666666665	0	0	1
111	108	1.6666666666666665	0	0	1
112	103	1.6666666666666665	0	0	1
111	112	1.6666666666666665	0	0	1
101	113	1.6666666666666665	0	0	1
114	110	1.6666666666666665	0	0	1
115	116	1.6666666666666665	0	0	1
117	115	1.6666666666666665	0	0	1
118	126	1.6666666666666665	0	0	1
120	119	1.6666666666666665	0	0	1
121	120	1.6666666666666665	0	0	1
123	125	1.6666666666666665	0	0	1
124	123	1.6666666666666665	0	0	1
116	124	1.6666666666666665	0	0	1
125	122	1.6666666666666665	0	0	1
126	117	1.6666666666666665	0	0	1
125	126	1.6666666666666665	0	0	1
115	127	1.6666666666666665	0	0	1
128	124	1.6666666666666665	0	0	1
129	130	1.6666666666666665	0	0	1
131	129	1.6666666666666665	0	0	1
132	140	1.6666666666666665	0	0	1
134	133	1.6666666666666665	0	0	1
135	134	1.6666666666666665	0	0	1
137	139	1.6666666666666665	0	0	1
138	137	1.6666666666666665	0	0	1
130	138	1.6666666666666665	0	0	1
139	136	1.6666666666666665	0	0	1
140	131	1.6666666666666665	0	0	1
139	140	1.6666666666666665	0	0	1
129	141	1.6666666666666665	0	0	1
142	138	1.6666666666666665	0	0	1
143	144	1.6666666666666665	0	0	1
145	143	1.6666666666666665	0	0	1
146	154	1.6666666666666665	0	0	1
148	147	1.6666666666666665	0	0	1
149	148	1.6666666666666665	0	0	1
151	153	1.6666666666666665	0	0	1
152	151	1.6666666666666665	0	0	1
144	152	1.6666666666666665	0	0	1
153	150	1.6666666666666665	0	0	1
154	145	1.6666666666666665	0	0	1
153	154	1.6666666666666665	0	0	1
143	155	1.6666666666666665	0	0	1
156	152	1.6666666666666665	0	0	1
157	158	1.6666666666666665	0	0	1
159	160	1.6666666666666665	0	0	1
161	162	1.6666666666666665	0	0	1
163	164	1.6666666666666665	0	0	1
165	166	1.6666666666666665	0	0	1
167	168	1.6666666666666665	0	0	1
169	170	1.6666666666666665	0	0	1
171	172	1.6666666666666665	0	0	1
173	28	0.16666666666666666	7	0	20
174	30	0.16666666666666666	7	0	20
175	22	0.16666666666666666	5	0	20
176	24	0.16666666666666666	5	0	20
[NumArcSegments] = 66
0	1	111.65952976653323	9.5492965855137779	0	0	2	9.5492965855137779
2	3	68.340470233466476	10	0	0	2	10
4	5	44.64159897151395	2.9925189238738765	0	0	2	2.9925189238738765
5	6	135.35840102848641	9.4271494896286772	0	0	2	9.4271494896286772
11	12	111.6595297665333	9.5492965855137228	0	0	2	9.5492965855137228
14	13	68.340470233466647	10	0	0	2	10
16	15	44.641598971513964	2.9925189238738596	0	0	2	2.9925189238738596
17	16	135.3584010284867	9.4271494896293717	0	0	2	9.4271494896293717
22	24	59.999999999999993	0.31852223434001731	0	0	2	0.31852223434001731
23	25	59.999999999999993	0.68699975435350491	0	0	2	0.68699975435350491
27	157	6.6666666666666679	1.6666666666666665	1	0	1	1.3
28	44	2.4166666666666665	0.3155749036851857	0	0	1	0.3155749036851857
35	34	92.326081086846159	9.549296585514826	0	0	1	9.549296585514826
38	37	92.326081086845619	9.5492965855148082	0	0	1	9.5492965855148082
43	158	2.4166666666666643	0.3155749036851857	0	0	1	0.3155749036851857
44	43	1.8333333333333341	0.3155749036851857	0	0	1	0.3155749036851857
49	48	92.326081086845846	9.5492965855147798	0	0	1	9.5492965855147798
52	51	92.326081086845392	9.5492965855148029	0	0	1	9.5492965855148029
57	160	2.4166666666666661	0.3155749036851857	0	0	1	0.3155749036851857
58	57	1.8333333333333321	0.3155749036851857	0	0	1	0.3155749036851857
63	62	92.326081086846244	9.5492965855148064	0	0	1	9.5492965855148064
66	65	92.326081086845434	9.5492965855148011	0	0	1	9.5492965855148011
71	162	2.4166666666666647	0.3155749036851857	0	0	1	0.3155749036851857
72	71	1.8333333333333319	0.3155749036851857	0	0	1	0.3155749036851857
77	76	92.326081086846358	9.549296585514842	0	0	1	9.549296585514842
80	79	92.326081086845619	9.5492965855147993	0	0	1	9.5492965855147993
85	164	2.4166666666666679	0.3155749036851857	0	0	1	0.3155749036851857
86	85	1.8333333333333357	0.3155749036851857	0	0	1	0.3155749036851857
91	90	92.326081086845704	9.5492965855148224	0	0	1	9.5492965855148224
94	93	92.326081086845647	9.5492965855148189	0	0	1	9.5492965855148189
99	166	2.4166666666666559	0.3155749036851857	0	0	1	0.3155749036851857
100	99	1.8333333333333357	0.3155749036851857	0	0	1	0.3155749036851857
105	104	92.326081086846102	9.5492965855148064	0	0	1	9.5492965855148064
108	107	92.326081086845718	9.5492965855148118	0	0	1	9.5492965855148118
113	168	2.4166666666666581	0.3155749036851857	0	0	1	0.3155749036851857
114	113	1.8333333333333384	0.3155749036851857	0	0	1	0.3155749036851857
119	118	92.326081086845861	9.5492965855148064	0	0	1	9.5492965855148064
122	121	92.326081086845505	9.5492965855147709	0	0	1	9.5492965855147709
127	170	2.4166666666666581	0.3155749036851857	0	0	1	0.3155749036851857
128	127	1.8333333333333293	0.3155749036851857	0	0	1	0.3155749036851857
133	132	92.326081086846798	9.5492965855148846	0	0	1	9.5492965855148846
136	135	92.326081086845676	9.5492965855147922	0	0	1	9.5492965855147922