[Format]      =  4.0
[Frequency]   =  0
[Precision]   =  1e-008
[MinAngle]    =  15
[DoSmartMesh] =  0
[Depth]       =  120
[LengthUnits] =  millimeters
[ProblemType] =  planar
[Coordinates] =  cartesian
[ACSolver]    =  0
[PrevType]    =  0
[PrevSoln]    =  ""
[Comment]     =  "Add comments here."
[PointProps]   = 0
[BdryProps]   = 9
  <BeginBdry>
    <BdryName> = "A=0"
    <BdryType> = 0
    <A_0> = 0
    <A_1> = 0
    <A_2> = 0
    <Phi> = 0
    <c0> = 0
    <c0i> = 0
    <c1> = 0
    <c1i> = 0
    <Mu_ssd> = 0
    <Sigma_ssd> = 0
    <innerangle> = 0
    <outerangle> = 0
  <EndBdry>
  <BeginBdry>
    <BdryName> = "APr1"
    <BdryType> = 5
    <A_0> = 0
    <A_1> = 0
    <A_2> = 0
    <Phi> = 0
    <c0> = 0
    <c0i> = 0
    <c1> = 0
    <c1i> = 0
    <Mu_ssd> = 0
    <Sigma_ssd> = 0
    <innerangle> = 0
    <outerangle> = 0
  <EndBdry>
  <BeginBdry>
    <BdryName> = "APr2"
    <BdryType> = 5
    <A_0> = 0
    <A_1> = 0
    <A_2> = 0
    <Phi> = 0
    <c0> = 0
    <c0i> = 0
    <c1> = 0
    <c1i> = 0
    <Mu_ssd> = 0
    <Sigma_ssd> = 0
    <innerangle> = 0
    <outerangle> = 0
  <EndBdry>
  <BeginBdry>
    <BdryName> = "APg1"
    <BdryType> = 5
    <A_0> = 0
    <A_1> = 0
    <A_2> = 0
    <Phi> = 0
    <c0> = 0
    <c0i> = 0
    <c1> = 0
    <c1i> = 0
    <Mu_ssd> = 0
    <Sigma_ssd> = 0
    <innerangle> = 0
    <outerangle> = 0
  <EndBdry>
  <BeginBdry>
    <BdryName> = "APg2"
    <BdryType> = 5
    <A_0> = 0
    <A_1> = 0
    <A_2> = 0
    <Phi> = 0
    <c0> = 0
    <c0i> = 0
    <c1> = 0
    <c1i> = 0
    <Mu_ssd> = 0
    <Sigma_ssd> = 0
    <innerangle> = 0
    <outerangle> = 0
  <EndBdry>
  <BeginBdry>
    <BdryName> = "APg3"
    <BdryType> = 5
    <A_0> = 0
    <A_1> = 0
    <A_2> = 0
    <Phi> = 0
    <c0> = 0
    <c0i> = 0
    <c1> = 0
    <c1i> = 0
    <Mu_ssd> = 0
    <Sigma_ssd> = 0
    <innerangle> = 0
    <outerangle> = 0
  <EndBdry>
  <BeginBdry>
    <BdryName> = "APs1"
    <BdryType> = 5
    <A_0> = 0
    <A_1> = 0
    <A_2> = 0
    <Phi> = 0
    <c0> = 0
    <c0i> = 0
    <c1> = 0
    <c1i> = 0
    <Mu_ssd> = 0
    <Sigma_ssd> = 0
    <innerangle> = 0
    <outerangle> = 0
  <EndBdry>
  <BeginBdry>
    <BdryName> = "APs2"
    <BdryType> = 5
    <A_0> = 0
    <A_1> = 0
    <A_2> = 0
    <Phi> = 0
    <c0> = 0
    <c0i> = 0
    <c1> = 0
    <c1i> = 0
    <Mu_ssd> = 0
    <Sigma_ssd> = 0
    <innerangle> = 0
    <outerangle> = 0
  <EndBdry>
  <BeginBdry>
    <BdryName> = "AGap"
    <BdryType> = 7
    <A_0> = 0
    <A_1> = 0
    <A_2> = 0
    <Phi> = 0
    <c0> = 0
    <c0i> = 0
    <c1> = 0
    <c1i> = 0
    <Mu_ssd> = 0
    <Sigma_ssd> = 0
    <innerangle> = 0
    <outerangle> = 0
  <EndBdry>
[BlockProps]  = 11
  <BeginBlock>
    <BlockName> = "M330-50A"
    <Mu_x> = 1
    <Mu_y> = 1
    <H_c> = 0
    <H_cAngle> = 0
    <J_re> = 0
    <J_im> = 0
    <Sigma> = 0
    <d_lam> = 0
    <Phi_h> = 0
    <Phi_hx> = 0
    <Phi_hy> = 0
    <LamType> = 0
    <LamFill> = 1
    <NStrands> = 0
    <WireD> = 0
    <BHPoints> = 217
      0	0
      0.0053946020000000001	3.672344067
      0.010714616	6.8753272440000002
      0.015693933	9.5580844509999991
      0.020428869999999998	11.868895970000001
      0.024958909000000001	13.890362379999999
      0.029322009	15.684288779999999
      0.033547049000000002	17.295049800000001
      0.037656652999999998	18.755537279999999
      0.041668727000000003	20.09069495
      0.045597674999999997	21.319852059999999
      0.049455256000000003	22.45827426
      0.053251218000000003	23.518220500000002
      0.056993742	24.50968026
      0.060689787000000002	25.440899349999999
      0.064345332000000005	26.318762490000001
      0.067965571000000002	27.149076829999998
      0.071555060000000004	27.936785539999999
      0.075117828999999997	28.686131100000001
      0.078657473000000006	29.400781949999999
      0.082177226000000006	30.083931799999998
      0.085680014999999998	30.738378449999999
      0.089168513000000005	31.366586959999999
      0.092645171999999998	31.970740809999999
      0.096112262000000004	32.55278362
      0.099571891999999995	33.114453480000002
      0.103026037	33.657311450000002
      0.106476554	34.182765279999998
      0.109925203	34.692089410000001
      0.113373658	35.186441819999999
      0.116823521	35.666878369999999
      0.120276333	36.134365080000002
      0.12373358299999999	36.589788650000003
      0.12719671699999999	37.033965549999998
      0.13066714800000001	37.467649909999999
      0.13414625899999999	37.891540399999997
      0.13763541200000001	38.306286239999999
      0.14113595500000001	38.712492480000002
      0.14464922499999999	39.11072471
      0.14817655599999999	39.501513160000002
      0.15171928200000001	39.885356430000002
      0.155278741	40.262724749999997
      0.15885628399999999	40.634063009999998
      0.16245327400000001	40.999793390000001
      0.166071096	41.360317850000001
      0.169711158	41.716020309999998
      0.173374895	42.067268740000003
      0.17706377700000001	42.414417039999996
      0.180779311	42.757806789999997
      0.18452304899999999	43.097768930000001
      0.18829658799999999	43.434625330000003
      0.19210158199999999	43.768690229999997
      0.195939741	44.100271749999997
      0.19981284199999999	44.429673260000001
      0.20372273399999999	44.757194720000001
      0.20767134400000001	45.083134119999997
      0.21166068499999999	45.407788770000003
      0.21569286300000001	45.73145675
      0.219770088	46.054438300000001
      0.22389468200000001	46.37703733
      0.228069089	46.699562970000002
      0.23229588400000001	47.022331200000004
      0.23657779300000001	47.345666680000001
      0.24091770000000001	47.669904619999997
      0.24531866399999999	47.995392969999997
      0.24978394200000001	48.322494759999998
      0.25431700800000001	48.651590810000002
      0.25892157799999999	48.983082879999998
      0.26360164899999999	49.317397329999999
      0.26836153800000001	49.654989579999999
      0.27320593700000001	49.996349520000003
      0.27813998899999998	50.342007709999997
      0.28316933700000002	50.692541060000003
      0.28830007499999999	51.048570900000001
      0.29353822000000002	51.410731400000003
      0.29888795800000001	51.779560959999998
      0.30434875700000003	52.155333249999998
      0.30992070999999999	52.538457690000001
      0.31567772500000002	52.934309210000002
      0.32164405899999998	53.344624670000002
      0.32783191900000003	53.770307729999999
      0.33425426600000002	54.212328020000001
      0.34092514299999999	54.671746669999997
      0.34785980900000002	55.14972839
      0.35507487100000001	55.6475553
      0.36258845000000001	56.166643059999998
      0.370420362	56.708559809999997
      0.37859233199999998	57.275048529999999
      0.38712824099999998	57.868053490000001
      0.396054407	58.489751800000001
      0.40539991800000003	59.142591189999997
      0.415197017	59.82933534
      0.42548155199999999	60.553118900000001
      0.43629350099999997	61.317514299999999
      0.44767758499999999	62.12661344
      0.45968398999999999	62.985128279999998
      0.47236920599999999	63.898515099999997
      0.48579699199999998	64.873128960000003
      0.50003949700000005	65.91641654
      0.51517851699999995	67.037157550000003
      0.53130686800000004	68.245767670000006
      0.54852981199999995	69.554678139999993
      0.56696637599999999	70.978808880000003
      0.58675025700000005	72.536150849999999
      0.60802972700000002	74.248465179999997
      0.630965518	76.142083060000004
      0.65572490500000002	78.248736190000002
      0.68246919500000003	80.606236499999994
      0.71133060299999995	83.258623439999994
      0.74237399000000004	86.255091329999999
      0.77554118299999997	89.646689460000005
      0.81058452000000003	93.479815509999995
      0.84701400400000004	97.78663281
      0.88410080700000004	102.5752308
      0.920971977	107.8251264
      0.95677759600000001	113.4926071
      0.99085052900000004	119.52406139999999
      1.022782925	125.8698955
      1.0524101530000001	132.49297350000001
      1.0797450550000001	139.37080660000001
      1.104906924	146.49395910000001
      1.1280668460000001	153.863201
      1.149412691	161.48681289999999
      1.1691294569999999	169.37852359999999
      1.187389603	177.5561069
      1.204349227	186.04051229999999
      1.2201473920000001	194.8553866
      1.234907008	204.02687499999999
      1.248736377	213.5836213
      1.2617309370000001	223.55691870000001
      1.27397497	233.9809808
      1.2855431719999999	244.89332160000001
      1.2965020469999999	256.33524130000001
      1.3069111289999999	268.35242670000002
      1.3168240369999999	280.99568160000001
      1.326289396	294.3218114
      1.335351631	308.39469450000001
      1.3440516709999999	323.286586
      1.3524275720000001	339.07971079999999
      1.3605150829999999	355.86822289999998
      1.3683481660000001	373.76062969999998
      1.3759595	392.88281460000002
      1.383380968	413.38183129999999
      1.390644156	435.43070110000002
      1.3977808810000001	459.23452630000003
      1.40482376	485.03833379999998
      1.4118068509999999	513.13721210000006
      1.4187663880000001	543.88949379999997
      1.425741631	577.73399040000004
      1.432775863	615.21260480000001
      1.4399175500000001	657.00002440000003
      1.4472216529999999	703.94258409999998
      1.4547510429999999	757.10865130000002
      1.462577885	817.85275990000002
      1.4707846979999999	887.89477460000001
      1.4794646810000001	969.41326800000002
      1.488720815	1065.1498349999999
      1.4986637730000001	1178.52298
      1.5094102599999999	1313.7694220000001
      1.521086664	1476.1887999999999
      1.533846577	1672.6804340000001
      1.5479122809999999	1912.916956
      1.5636486979999999	2211.695103
      1.581677808	2593.3317259999999
      1.6030347629999999	3099.3840519999999
      1.6292589099999999	3798.988378
      1.6617020419999999	4781.2063950000002
      1.6984532640000001	6053.7368770000003
      1.7333860940000001	7439.8617350000004
      1.7635048010000001	8801.9461080000001
      1.789330069	10122.77506
      1.8118526150000001	11417.300950000001
      1.8318566590000001	12703.306769999999
      1.849907025	13996.55458
      1.86641071	15310.6818
      1.8816681390000001	16657.908230000001
      1.8959078979999999	18049.757750000001
      1.9093094989999999	19497.681489999999
      1.922018494	21013.61174
      1.934156808	22610.50042
      1.945830119	24302.899119999998
      1.9571334419999999	26107.643410000001
      1.968155689	28044.719809999999
      1.978983784	30138.424900000002
      1.989706856	32418.983469999999
      2.0004210790000001	34924.895069999999
      2.0112359479999999	37706.46776
      2.0222832629999998	40831.359960000002
      2.0337311360000001	44393.687169999997
      2.045807564	48529.8488
      2.0588435289999998	53448.025110000002
      2.0733596969999999	59488.361470000003
      2.0902641169999998	67261.851060000001
      2.1113912620000002	78033.644809999998
      2.1414625539999999	95137.902050000004
      2.1851095150000002	122813.1716
      2.2495631629999999	167592.69839999999
      2.3474046880000001	240047.49479999999
      2.441823759	312287.7452
      2.533171925	383198.51289999997
      2.6222810239999998	454109.2806
      2.7113901220000001	525020.04830000002
      2.8004992209999999	595930.81599999999
      2.8896083199999998	666841.58369999996
      2.9787174190000001	737752.35140000004
      3.0678265169999999	808663.11910000001
      3.1569356160000002	879573.88679999998
      3.246044715	950484.65449999995
      3.3351538139999999	1021395.422
      3.4242629120000001	1092306.1899999999
      3.513372011	1163216.9580000001
      3.6024811099999998	1234127.7250000001
      3.6915902090000001	1305038.493
      3.7806993069999999	1375949.2609999999
      3.8698084060000002	1446860.0279999999
      3.9589175050000001	1517770.7960000001
      4.0480266040000004	1588681.564
  <EndBlock>
  <BeginBlock>
    <BlockName> = "ShaftAir"
    <Mu_x> = 1
    <Mu_y> = 1
    <H_c> = 0
    <H_cAngle> = 0
    <J_re> = 0
    <J_im> = 0
    <Sigma> = 0
    <d_lam> = 0
    <Phi_h> = 0
    <Phi_hx> = 0
    <Phi_hy> = 0
    <LamType> = 0
    <LamFill> = 1
    <NStrands> = 0
    <WireD> = 0
    <BHPoints> = 3
      -100	-7.9577471545947675e-011
      0	0
      100	7.9577471545947675e-011
  <EndBlock>
  <BeginBlock>
    <BlockName> = "Copper"
    <Mu_x> = 1
    <Mu_y> = 1
    <H_c> = 0
    <H_cAngle> = 0
    <J_re> = 0
    <J_im> = 0
    <Sigma> = 58
    <d_lam> = 0
    <Phi_h> = 0
    <Phi_hx> = 0
    <Phi_hy> = 0
    <LamType> = 0
    <LamFill> = 1
    <NStrands> = 0
    <WireD> = 0
    <BHPoints> = 0
  <EndBlock>
  <BeginBlock>
    <BlockName> = "BMN-38EHS"
    <Mu_x> = 1.05
    <Mu_y> = 1.05
    <H_c> = 954929
    <H_cAngle> = 0
    <J_re> = 0
    <J_im> = 0
    <Sigma> = 0.66666700000000001
    <d_lam> = 0
    <Phi_h> = 0
    <Phi_hx> = 0
    <Phi_hy> = 0
    <LamType> = 0
    <LamFill> = 1
    <NStrands> = 0
    <WireD> = 0
    <BHPoints> = 0
  <EndBlock>
  <BeginBlock>
    <BlockName> = "Air"
    <Mu_x> = 1
    <Mu_y> = 1
    <H_c> = 0
    <H_cAngle> = 0
    <J_re> = 0
    <J_im> = 0
    <Sigma> = 0
    <d_lam> = 0
    <Phi_h> = 0
    <Phi_hx> = 0
    <Phi_hy> = 0
    <LamType> = 0
    <LamFill> = 1
    <NStrands> = 0
    <WireD> = 0
    <BHPoints> = 0
  <EndBlock>
  <BeginBlock>
    <BlockName> = "BMN-38EHS_1"
    <Mu_x> = 1.05
    <Mu_y> = 1.05
    <H_c> = 954929.65855137201
    <H_cAngle> = 0
    <J_re> = 0
    <J_im> = 0
    <Sigma> = 0.66666700000000001
    <d_lam> = 0
    <Phi_h> = 0
    <Phi_hx> = 0
    <Phi_hy> = 0
    <LamType> = 0
    <LamFill> = 1
    <NStrands> = 0
    <WireD> = 0
    <BHPoints> = 0
  <EndBlock>
  <BeginBlock>
    <BlockName> = "BMN-38EHS_2"
    <Mu_x> = 1.05
    <Mu_y> = 1.05
    <H_c> = 954929.65855137201
    <H_cAngle> = 0
    <J_re> = 0
    <J_im> = 0
    <Sigma> = 0.66666700000000001
    <d_lam> = 0
    <Phi_h> = 0
    <Phi_hx> = 0
    <Phi_hy> = 0
    <LamType> = 0
    <LamFill> = 1
    <NStrands> = 0
    <WireD> = 0
    <BHPoints> = 0
  <EndBlock>
  <BeginBlock>
    <BlockName> = "BMN-38EHS_3"
    <Mu_x> = 1.05
    <Mu_y> = 1.05
    <H_c> = 954929.65855137201
    <H_cAngle> = 0
    <J_re> = 0
    <J_im> = 0
    <Sigma> = 0.66666700000000001
    <d_lam> = 0
    <Phi_h> = 0
    <Phi_hx> = 0
    <Phi_hy> = 0
    <LamType> = 0
    <LamFill> = 1
    <NStrands> = 0
    <WireD> = 0
    <BHPoints> = 0
  <EndBlock>
  <BeginBlock>
    <BlockName> = "BMN-38EHS_4"
    <Mu_x> = 1.05
    <Mu_y> = 1.05
    <H_c> = 954929.65855137201
    <H_cAngle> = 0
    <J_re> = 0
    <J_im> = 0
    <Sigma> = 0.66666700000000001
    <d_lam> = 0
    <Phi_h> = 0
    <Phi_hx> = 0
    <Phi_hy> = 0
    <LamType> = 0
    <LamFill> = 1
    <NStrands> = 0
    <WireD> = 0
    <BHPoints> = 0
  <EndBlock>
  <BeginBlock>
    <BlockName> = "BMN-38EHS_5"
    <Mu_x> = 1.05
    <Mu_y> = 1.05
    <H_c> = 954929.65855137201
    <H_cAngle> = 0
    <J_re> = 0
    <J_im> = 0
    <Sigma> = 0.66666700000000001
    <d_lam> = 0
    <Phi_h> = 0
    <Phi_hx> = 0
    <Phi_hy> = 0
    <LamType> = 0
    <LamFill> = 1
    <NStrands> = 0
    <WireD> = 0
    <BHPoints> = 0
  <EndBlock>
  <BeginBlock>
    <BlockName> = "BMN-38EHS_6"
    <Mu_x> = 1.05
    <Mu_y> = 1.05
    <H_c> = 954929.65855137201
    <H_cAngle> = 0
    <J_re> = 0
    <J_im> = 0
    <Sigma> = 0.66666700000000001
    <d_lam> = 0
    <Phi_h> = 0
    <Phi_hx> = 0
    <Phi_hy> = 0
    <LamType> = 0
    <LamFill> = 1
    <NStrands> = 0
    <WireD> = 0
    <BHPoints> = 0
  <EndBlock>
[CircuitProps]  = 6
  <BeginCircuit>
    <CircuitName> = "fase1"
    <TotalAmps_re> = 0
    <TotalAmps_im> = 0
    <CircuitType> = 1
  <EndCircuit>
  <BeginCircuit>
    <CircuitName> = "fase2"
    <TotalAmps_re> = 0
    <TotalAmps_im> = 0
    <CircuitType> = 1
  <EndCircuit>
  <BeginCircuit>
    <CircuitName> = "fase3"
    <TotalAmps_re> = 0
    <TotalAmps_im> = 0
    <CircuitType> = 1
  <EndCircuit>
  <BeginCircuit>
    <CircuitName> = "fase1n"
    <TotalAmps_re> = 0
    <TotalAmps_im> = 0
    <CircuitType> = 1
  <EndCircuit>
  <BeginCircuit>
    <CircuitName> = "fase2n"
    <TotalAmps_re> = 0
    <TotalAmps_im> = 0
    <CircuitType> = 1
  <EndCircuit>
  <BeginCircuit>
    <CircuitName> = "fase3n"
    <TotalAmps_re> = 0
    <TotalAmps_im> = 0
    <CircuitType> = 1
  <EndCircuit>
[NumPoints] = 248
33.99731291855435	33.99731291855435	0	2
32.512051373915071	32.512051373915064	0	2
29.178880628934273	38.815745208174427	0	2
28.471773847747734	38.81574520817442	0	2
27.693619084294994	38.037590444721687	0	2
27.693619084294994	37.330483663535141	0	2
26.37129682764764	38.652805920182495	0	2
26.371296827647633	41.8349171996827	0	2
26.632958912515175	38.391143835314963	0	2
27.340065693701717	38.391143835314963	0	2
28.118220457154457	39.169298598767696	0	2
28.471773847747734	40.022851989360973	0	2
28.47177384774773	40.476674139303846	0	2
27.421535337697687	42.406478275416802	0	2
28.695709987054762	28.695709987054759	0	2
25.428134588848327	25.428134588848323	0	2
20.689868222634207	36.701551751475314	0	2
19.982761441447661	36.701551751475314	0	2
17.422292824427775	34.141083134455428	0	2
17.422292824427771	33.433976353268882	0	2
15.008158606634177	35.848110571062477	0	2
15.008158606634181	46.201957346358526	0	2
16.008079262054679	34.848189915641974	0	2
16.715186043241225	34.848189915641974	0	2
19.275654660261111	37.40865853266186	0	2
19.629208050854384	38.262211923255137	0	2
19.629208050854384	43.770629026746597	0	2
16.948999373206668	47.570804284214489	0	2
21.641353036569555	21.641353036569551	0	2
16.814253016491879	16.814253016491875	0	2
10.90251816463301	32.380187908506102	0	2
10.195411383446462	32.380187908506102	0	2
6.0754181445553321	28.260194669614968	0	2
6.0754181445553339	27.553087888428422	0	2
2.6617542869346238	30.966751746049134	0	2
2.6617542869346238	47.367637230590596	0	2
4.307651191588965	29.320854841394791	0	2
5.0147579727755112	29.320854841394791	0	2
9.1347512116666412	33.440848080285917	0	2
9.4883046022599142	34.294401470879194	0	2
9.4883046022599196	46.028339201543105	0	2
5.8019674319842665	50.165597513816124	0	2
32.582762052033722	32.582762052033722	0	2
32.653810034299909	35.340815802808791	0	2
31.239259167779281	33.926264936288163	0	2
25.498845266966985	25.498845266966981	0	2
24.050018434659144	33.341401539450374	0	2
20.85315371457137	30.1445368193626	0	2
16.884963694610533	16.88496369461053	0	2
14.19551863067521	29.087187442463897	0	2
9.4391292887161882	24.330798100504875	0	2
38.815745208174427	29.178880628934273	0	2
38.815745208174427	28.471773847747723	0	2
38.037590444721687	27.693619084294991	0	2
37.330483663535148	27.693619084294987	0	2
38.652805920182502	26.371296827647633	0	2
41.8349171996827	26.371296827647633	0	2
38.391143835314963	26.632958912515168	0	2
38.391143835314963	27.340065693701717	0	2
39.169298598767703	28.11822045715445	0	2
40.02285198936098	28.471773847747727	0	2
40.476674139303853	28.471773847747723	0	2
42.406478275416809	27.421535337697676	0	2
36.701551751475321	20.689868222634203	0	2
36.701551751475321	19.98276144144765	0	2
34.141083134455428	17.422292824427764	0	2
33.433976353268882	17.422292824427764	0	2
35.848110571062477	15.008158606634172	0	2
46.201957346358526	15.008158606634172	0	2
34.848189915641974	16.008079262054672	0	2
34.848189915641981	16.715186043241218	0	2
37.408658532661867	19.275654660261104	0	2
38.262211923255137	19.62920805085438	0	2
43.770629026746604	19.62920805085438	0	2
47.570804284214496	16.948999373206657	0	2
32.380187908506102	10.902518164633005	0	2
32.380187908506102	10.195411383446457	0	2
28.260194669614972	6.0754181445553268	0	2
27.553087888428422	6.0754181445553286	0	2
30.966751746049134	2.6617542869346167	0	2
47.367637230590596	2.6617542869346167	0	2
29.320854841394791	4.3076511915889597	0	2
29.320854841394791	5.0147579727755058	0	2
33.440848080285924	9.1347512116666358	0	2
34.294401470879194	9.4883046022599089	0	2
46.028339201543105	9.4883046022599125	0	2
50.165597513816124	5.8019674319842558	0	2
35.340815802808791	32.653810034299909	0	2
33.926264936288163	31.239259167779281	0	2
33.341401539450381	24.05001843465914	0	2
30.1445368193626	20.853153714571363	0	2
29.0871874424639	14.195518630675206	0	2
24.330798100504879	9.4391292887161846	0	2
51	0	0	20
16.789999999999999	0	0	2
3.1228493378257506e-015	51	0	20
1.028090987884203e-015	16.789999999999999	0	2
0	0	0	2
85	0	0	1
51.399999999999999	0	0	20
5.2047488963762509e-015	85	0	1
3.1473422738086977e-015	51.399999999999999	0	20
51.582748878263516	5.7285033887752981	0	1
51.688292034739433	4.5221395900570158	0	1
52.386443705184526	6.7950424470039419	0	1
67.064363294507359	9.3831556912708685	0	1
68.231587125502955	8.5115178154903894	0	1
68.518271334750253	5.9945719861839288	0	1
68.673005559362792	3.4660820290695034	0	1
67.674872809812456	2.404999999999998	0	1
52.770522651694982	2.4049999999999994	0	1
51.793835191215351	3.3157757913387331	0	1
60.30572879963227	2.4049999999999994	0	1
59.807173140218431	8.1035172629379026	0	1
51.084651529217638	5.684925517401469	0	1
51.295737842169473	3.2721979199649041	0	1
49.80434684277602	14.598724892183974	0	1
50.117769436801666	13.429015847040212	0	1
50.41062917551163	15.788620967713054	0	1
64.416137036703915	20.886208944968352	0	1
65.716986443683751	20.230499498262439	0	1
66.436378332162107	17.801573922151377	0	1
67.027829469518935	15.338366725098258	0	1
66.229115559929411	14.120080983259584	0	1
51.551195970606592	11.531967738992661	0	1
50.431192030827326	12.259306801896447	0	1
58.971925405640491	12.840442554926621	0	1
57.491406788828918	18.365813254419027	0	1
49.32138392963148	14.469315369632714	0	1
49.948229117682779	12.129897279345185	0	1
46.512664930686313	23.025371527054883	0	1
47.024443775341716	21.927858252920991	0	1
46.903113187350009	24.302470229745914	0	1
59.810659051178376	31.754645308804658	0	1
61.205608383172923	31.334787690906484	0	1
62.335849592380782	29.067684042525304	0	1
63.346046698962006	26.744602909772965	0	1
62.771020147307453	25.406130450948563	0	1
48.765512286115175	20.308542473693276	0	1
47.536222619997112	20.830344978787103	0	1
55.846289899432449	22.885734760399249	0	1
53.428793134216399	28.070073303714562	0	1
46.059511037167987	22.814062396184532	0	1
47.083068726478778	20.619035847916752	0	1
41.807719231221817	30.752403899476406	0	1
42.5023041852847	29.760433781818435	0	1
41.970469839111225	32.077901231491246	0	1
53.387864456036588	41.658232843558778	0	1
54.834528883471613	41.486984215729976	0	1
56.341277606196854	39.450587292224938	0	1
57.739526354103418	37.33821786845629	0	1
57.405659051178361	35.920227501007794	0	1
44.498113187350015	28.468052421949061	0	1
43.196889139347576	28.768463664160464	0	1
51.02379313421639	32.235655495917705	0	1
47.742772636494557	36.921438379819179	0	1
41.398143209077318	30.465615681300882	0	1
42.787313117203077	28.481675445984941	0	1
35.832467138643352	37.54504004087957	0	1
36.688753589761461	36.688753589761461	0	1
35.762575002893534	38.878661436518961	0	1
45.342906614961073	50.296056053444332	0	1
46.797329971256474	50.378619718585483	0	1
48.634804410010737	48.63480441001073	0	1
50.378619718585497	46.797329971256474	0	1
50.296056053444325	45.342906614961059	0	1
38.878661436518975	35.762575002893534	0	1
37.54504004087957	35.832467138643338	0	1
44.650964233902293	40.60611215122146	0	1
40.606112151221467	44.650964233902286	0	1
35.478913748050068	37.191486650286294	0	1
37.191486650286294	35.478913748050068	0	1
28.768463664160471	43.196889139347576	0	1
29.760433781818445	42.502304185284693	0	1
28.468052421949064	44.498113187350008	0	1
35.920227501007815	57.405659051178368	0	1
37.338217868456304	57.739526354103404	0	1
39.450587292224945	56.341277606196847	0	1
41.486984215729997	54.834528883471606	0	1
41.658232843558778	53.387864456036574	0	1
32.077901231491253	41.970469839111225	0	1
30.752403899476409	41.80771923122181	0	1
36.921438379819179	47.742772636494543	0	1
32.235655495917712	51.02379313421639	0	1
28.481675445984944	42.787313117203077	0	1
30.465615681300882	41.398143209077304	0	1
20.830344978787114	47.536222619997105	0	1
21.927858252921002	47.024443775341709	0	1
20.308542473693279	48.765512286115168	0	1
25.406130450948581	62.771020147307453	0	1
26.744602909772979	63.346046698961992	0	1
29.067684042525311	62.335849592380775	0	1
31.334787690906502	61.205608383172915	0	1
31.754645308804662	59.810659051178355	0	1
24.302470229745925	46.903113187350009	0	1
23.02537152705489	46.512664930686306	0	1
28.070073303714569	53.428793134216384	0	1
22.885734760399256	55.846289899432449	0	1
20.619035847916759	47.083068726478778	0	1
22.814062396184539	46.059511037167979	0	1
12.259306801896455	50.431192030827326	0	1
13.429015847040219	50.117769436801666	0	1
11.531967738992666	51.551195970606585	0	1
14.120080983259596	66.229115559929426	0	1
15.338366725098268	67.02782946951892	0	1
17.801573922151384	66.436378332162107	0	1
20.230499498262454	65.716986443683751	0	1
20.886208944968356	64.416137036703915	0	1
15.788620967713063	50.41062917551163	0	1
14.598724892183983	49.804346842776013	0	1
18.365813254419031	57.491406788828911	0	1
12.84044255492663	58.971925405640491	0	1
12.12989727934519	49.948229117682786	0	1
14.469315369632717	49.32138392963148	0	1
3.3157757913387389	51.793835191215358	0	1
4.5221395900570203	51.688292034739433	0	1
2.4050000000000038	52.770522651694975	0	1
2.4050000000000047	67.67487280981247	0	1
3.4660820290695113	68.673005559362778	0	1
5.9945719861839342	68.518271334750253	0	1
8.5115178154903983	68.231587125502955	0	1
9.383155691270872	67.064363294507345	0	1
6.7950424470039472	52.386443705184526	0	1
5.7285033887753016	51.582748878263516	0	1
8.103517262937908	59.807173140218424	0	1
2.4050000000000056	60.30572879963227	0	1
3.2721979199649089	51.295737842169473	0	1
5.6849255174014726	51.084651529217631	0	1
83.708659006037678	14.760095101689078	0	1
50.61911850482749	8.9255163320802193	0	1
79.873872766802222	29.071712182681839	0	1
48.300200708395693	17.579835366939371	0	1
73.612159321677296	42.499999999999993	0	1
44.513705754520146	25.699999999999996	0	1
65.113777665113133	54.636946823355835	0	1
39.374684376315471	33.03928313788812	0	1
54.636946823355849	65.113777665113133	0	1
33.03928313788812	39.374684376315471	0	1
42.499999999999993	73.612159321677296	0	1
25.699999999999992	44.513705754520146	0	1
29.07171218268185	79.873872766802208	0	1
17.579835366939378	48.300200708395685	0	1
14.760095101689085	83.708659006037678	0	1
8.9255163320802229	50.61911850482749	0	1
51.266666666666666	0	0	20
3.1391779618143819e-015	51.266666666666666	0	20
51.133333333333333	0	0	20
3.1310136498200665e-015	51.133333333333333	0	20
[NumSegments] = 201
0	42	2.5	0	0	2
2	43	2.5	0	0	2
4	3	2.5	0	0	2
1	5	2.5	0	0	2
6	7	2.5	0	0	2
8	6	2.5	0	0	2
10	9	2.5	0	0	2
12	11	2.5	0	0	2
14	45	2.5	0	0	2
16	46	2.5	0	0	2
18	17	2.5	0	0	2
15	19	2.5	0	0	2
20	21	2.5	0	0	2
22	20	2.5	0	0	2
24	23	2.5	0	0	2
26	25	2.5	0	0	2
28	48	2.5	0	0	2
30	49	2.5	0	0	2
32	31	2.5	0	0	2
29	33	2.5	0	0	2
34	35	2.5	0	0	2
36	34	2.5	0	0	2
38	37	2.5	0	0	2
40	39	2.5	0	0	2
42	1	2.5	0	0	2
43	0	2.5	0	0	2
44	43	2.5	0	0	2
42	44	2.5	0	0	2
45	15	2.5	0	0	2
46	14	2.5	0	0	2
47	46	2.5	0	0	2
45	47	2.5	0	0	2
48	29	2.5	0	0	2
49	28	2.5	0	0	2
50	49	2.5	0	0	2
48	50	2.5	0	0	2
51	87	2.5	0	0	2
53	52	2.5	0	0	2
1	54	2.5	0	0	2
55	56	2.5	0	0	2
57	55	2.5	0	0	2
59	58	2.5	0	0	2
61	60	2.5	0	0	2
63	89	2.5	0	0	2
65	64	2.5	0	0	2
15	66	2.5	0	0	2
67	68	2.5	0	0	2
69	67	2.5	0	0	2
71	70	2.5	0	0	2
73	72	2.5	0	0	2
75	91	2.5	0	0	2
77	76	2.5	0	0	2
29	78	2.5	0	0	2
79	80	2.5	0	0	2
81	79	2.5	0	0	2
83	82	2.5	0	0	2
85	84	2.5	0	0	2
87	0	2.5	0	0	2
88	87	2.5	0	0	2
42	88	2.5	0	0	2
89	14	2.5	0	0	2
90	89	2.5	0	0	2
45	90	2.5	0	0	2
91	28	2.5	0	0	2
92	91	2.5	0	0	2
48	92	2.5	0	0	2
93	94	-1	3	0	2
96	95	-1	3	0	2
94	97	-1	2	0	2
97	96	-1	2	0	2
98	99	-1	7	0	1
101	100	-1	7	0	1
102	103	2.5	0	0	1
104	102	2.5	0	0	1
105	113	2.5	0	0	1
107	106	2.5	0	0	1
108	107	2.5	0	0	1
110	112	2.5	0	0	1
111	110	2.5	0	0	1
103	111	2.5	0	0	1
112	109	2.5	0	0	1
113	104	2.5	0	0	1
112	113	2.5	0	0	1
102	114	2.5	0	0	1
115	111	2.5	0	0	1
116	117	2.5	0	0	1
118	116	2.5	0	0	1
119	127	2.5	0	0	1
121	120	2.5	0	0	1
122	121	2.5	0	0	1
124	126	2.5	0	0	1
125	124	2.5	0	0	1
117	125	2.5	0	0	1
126	123	2.5	0	0	1
127	118	2.5	0	0	1
126	127	2.5	0	0	1
116	128	2.5	0	0	1
129	125	2.5	0	0	1
130	131	2.5	0	0	1
132	130	2.5	0	0	1
133	141	2.5	0	0	1
135	134	2.5	0	0	1
136	135	2.5	0	0	1
138	140	2.5	0	0	1
139	138	2.5	0	0	1
131	139	2.5	0	0	1
140	137	2.5	0	0	1
141	132	2.5	0	0	1
140	141	2.5	0	0	1
130	142	2.5	0	0	1
143	139	2.5	0	0	1
144	145	2.5	0	0	1
146	144	2.5	0	0	1
147	155	2.5	0	0	1
149	148	2.5	0	0	1
150	149	2.5	0	0	1
152	154	2.5	0	0	1
153	152	2.5	0	0	1
145	153	2.5	0	0	1
154	151	2.5	0	0	1
155	146	2.5	0	0	1
154	155	2.5	0	0	1
144	156	2.5	0	0	1
157	153	2.5	0	0	1
158	159	2.5	0	0	1
160	158	2.5	0	0	1
161	169	2.5	0	0	1
163	162	2.5	0	0	1
164	163	2.5	0	0	1
166	168	2.5	0	0	1
167	166	2.5	0	0	1
159	167	2.5	0	0	1
168	165	2.5	0	0	1
169	160	2.5	0	0	1
168	169	2.5	0	0	1
158	170	2.5	0	0	1
171	167	2.5	0	0	1
172	173	2.5	0	0	1
174	172	2.5	0	0	1
175	183	2.5	0	0	1
177	176	2.5	0	0	1
178	177	2.5	0	0	1
180	182	2.5	0	0	1
181	180	2.5	0	0	1
173	181	2.5	0	0	1
182	179	2.5	0	0	1
183	174	2.5	0	0	1
182	183	2.5	0	0	1
172	184	2.5	0	0	1
185	181	2.5	0	0	1
186	187	2.5	0	0	1
188	186	2.5	0	0	1
189	197	2.5	0	0	1
191	190	2.5	0	0	1
192	191	2.5	0	0	1
194	196	2.5	0	0	1
195	194	2.5	0	0	1
187	195	2.5	0	0	1
196	193	2.5	0	0	1
197	188	2.5	0	0	1
196	197	2.5	0	0	1
186	198	2.5	0	0	1
199	195	2.5	0	0	1
200	201	2.5	0	0	1
202	200	2.5	0	0	1
203	211	2.5	0	0	1
205	204	2.5	0	0	1
206	205	2.5	0	0	1
208	210	2.5	0	0	1
209	208	2.5	0	0	1
201	209	2.5	0	0	1
210	207	2.5	0	0	1
211	202	2.5	0	0	1
210	211	2.5	0	0	1
200	212	2.5	0	0	1
213	209	2.5	0	0	1
214	215	2.5	0	0	1
216	214	2.5	0	0	1
217	225	2.5	0	0	1
219	218	2.5	0	0	1
220	219	2.5	0	0	1
222	224	2.5	0	0	1
223	222	2.5	0	0	1
215	223	2.5	0	0	1
224	221	2.5	0	0	1
225	216	2.5	0	0	1
224	225	2.5	0	0	1
214	226	2.5	0	0	1
227	223	2.5	0	0	1
228	229	2.5	0	0	1
230	231	2.5	0	0	1
232	233	2.5	0	0	1
234	235	2.5	0	0	1
236	237	2.5	0	0	1
238	239	2.5	0	0	1
240	241	2.5	0	0	1
242	243	2.5	0	0	1
244	99	0.25	6	0	20
245	101	0.25	6	0	20
246	93	0.25	4	0	20
247	95	0.25	4	0	20